@<TRIPOS>MOLECULE
tmp/1f1hA00.pdb
 192 184 0 0 0
SMALL
GASTEIGER

@<TRIPOS>ATOM
      1  N        -98.0190    5.1210  -86.2930 N.3   125  LEU125     -0.1245
      2  CA       -96.6680    5.6600  -86.2990 C.3   125  LEU125      0.1561
      3  C        -96.1390    5.9620  -84.9000 C.2   125  LEU125      0.2260
      4  O        -96.7990    6.6300  -84.0980 O.2   125  LEU125     -0.2867
      5  CB       -96.6020    6.8990  -87.1850 C.3   125  LEU125      0.0270
      6  CG       -96.1790    6.6670  -88.6370 C.3   125  LEU125      0.0019
      7  CD1      -96.4480    5.2490  -89.1050 C.3   125  LEU125      0.0001
      8  CD2      -96.8840    7.6770  -89.5050 C.3   125  LEU125      0.0001
      9  N        -92.6570    7.2400  -82.5500 N.3   127  GLY127     -0.1210
     10  CA       -91.3650    7.8970  -82.5170 C.3   127  GLY127      0.1940
     11  C        -90.9060    8.0840  -81.0840 C.2   127  GLY127      0.2454
     12  O        -91.1260    9.1520  -80.5170 O.2   127  GLY127     -0.2732
     13  N        -90.2630    7.0730  -80.4660 N.am  128  PRO128     -0.2717
     14  CA       -89.7960    7.1890  -79.0820 C.3   128  PRO128      0.1535
     15  C        -88.5070    7.9950  -79.0300 C.2   128  PRO128      0.2598
     16  O        -87.7160    7.9750  -79.9740 O.2   128  PRO128     -0.2715
     17  CB       -89.5080    5.7370  -78.6850 C.3   128  PRO128      0.0310
     18  CG       -89.8550    4.8940  -79.9130 C.3   128  PRO128      0.0237
     19  CD       -89.7820    5.8180  -81.0630 C.3   128  PRO128      0.0939
     20  N        -88.3020    8.7090  -77.9280 N.am  129  GLU129     -0.1978
     21  CA       -87.0890    9.5080  -77.7310 C.3   129  GLU129      0.1602
     22  C        -86.4120    8.9140  -76.4810 C.2   129  GLU129      0.2287
     23  O        -86.4590    9.4910  -75.3950 O.2   129  GLU129     -0.2864
     24  CB       -87.4440   10.9920  -77.4880 C.3   129  GLU129      0.0415
     25  CG       -88.2300   11.7630  -78.6180 C.3   129  GLU129      0.1163
     26  CD       -88.8230   13.0920  -78.1160 C.2   129  GLU129      0.3649
     27  OE1      -88.6270   14.1600  -78.7250 O.co2 129  GLU129     -0.2457
     28  OE2      -89.4950   13.0860  -77.0710 O.co2 129  GLU129     -0.2457
     29  N        -83.6900    8.0850  -73.7870 N.3   131  GLU131     -0.1245
     30  CA       -82.4760    8.6720  -73.2230 C.3   131  GLU131      0.1567
     31  C        -81.6720    7.6550  -72.4150 C.2   131  GLU131      0.2260
     32  O        -82.2060    6.6500  -71.9570 O.2   131  GLU131     -0.2867
     33  CB       -82.8460    9.8510  -72.3340 C.3   131  GLU131      0.0388
     34  CG       -83.2460   11.0730  -73.1230 C.3   131  GLU131      0.1160
     35  CD       -84.0580   12.0550  -72.3150 C.2   131  GLU131      0.3649
     36  OE1      -84.1280   13.2360  -72.7270 O.co2 131  GLU131     -0.2457
     37  OE2      -84.6460   11.6470  -71.2830 O.co2 131  GLU131     -0.2457
     38  N        -76.1210   20.2520  -70.4810 N.3   179  TYR179     -0.1241
     39  CA       -76.8270   20.4980  -71.6960 C.3   179  TYR179      0.1605
     40  C        -76.1200   21.4230  -72.6060 C.2   179  TYR179      0.2264
     41  O        -75.9610   22.6120  -72.3820 O.2   179  TYR179     -0.2867
     42  CB       -78.2250   20.9080  -71.4010 C.3   179  TYR179      0.0534
     43  CG       -79.1850   20.2410  -72.3420 C.ar  179  TYR179     -0.0201
     44  CD1      -79.0290   18.9340  -72.8560 C.ar  179  TYR179     -0.0009
     45  CD2      -80.2930   20.9600  -72.7470 C.ar  179  TYR179     -0.0009
     46  CE1      -79.9610   18.3790  -73.7160 C.ar  179  TYR179      0.0417
     47  CE2      -81.2380   20.4140  -73.6080 C.ar  179  TYR179      0.0417
     48  CZ       -81.0560   19.1280  -74.0750 C.ar  179  TYR179      0.1957
     49  OH       -81.9770   18.5920  -74.9320 O.3   179  TYR179     -0.2866
     50  N        -81.8040   11.1230  -86.6360 N.3   207  GLU207     -0.1231
     51  CA       -82.2170   12.5020  -86.8330 C.3   207  GLU207      0.1699
     52  C        -81.2970   13.4950  -86.1200 C.2   207  GLU207      0.2592
     53  O        -81.0500   14.5880  -86.6330 O.2   207  GLU207     -0.2718
     54  CB       -83.6720   12.6830  -86.3870 C.3   207  GLU207      0.0402
     55  CG       -84.6230   12.8870  -87.5550 C.3   207  GLU207      0.1161
     56  CD       -86.0100   12.3260  -87.3260 C.2   207  GLU207      0.3649
     57  OE1      -86.4180   12.1520  -86.1550 O.co2 207  GLU207     -0.2457
     58  OE2      -86.6980   12.0610  -88.3380 O.co2 207  GLU207     -0.2457
     59  N        -80.7640   13.1010  -84.9620 N.am  208  ALA208     -0.1980
     60  CA       -79.8660   13.9630  -84.1820 C.3   208  ALA208      0.1597
     61  C        -79.2290   13.2560  -82.9970 C.2   208  ALA208      0.2287
     62  O        -79.6720   12.1790  -82.5930 O.2   208  ALA208     -0.2864
     63  CB       -80.6340   15.1590  -83.6530 C.3   208  ALA208      0.0319
     64  N        -77.0850   14.3390  -79.1050 N.3   210  HIS210     -0.1241
     65  CA       -76.6410   15.3840  -78.2100 C.3   210  HIS210      0.1621
     66  C        -76.5280   14.8790  -76.7920 C.2   210  HIS210      0.2264
     67  O        -77.0790   13.8290  -76.4500 O.2   210  HIS210     -0.2867
     68  CB       -77.6630   16.5170  -78.2340 C.3   210  HIS210      0.0745
     69  CG       -79.0570   16.0880  -77.8670 C.ar  210  HIS210      0.0817
     70  ND1      -79.5310   16.1110  -76.5740 N.ar  210  HIS210     -0.2268
     71  CD2      -80.0800   15.6300  -78.6310 C.ar  210  HIS210      0.1154
     72  CE1      -80.7850   15.6870  -76.5540 C.ar  210  HIS210      0.1986
     73  NE2      -81.1410   15.3890  -77.7920 N.ar  210  HIS210     -0.2212
     74  N        -77.3710   15.1290  -72.8180 N.3   212  GLU212     -0.1245
     75  CA       -78.6150   15.4990  -72.1640 C.3   212  GLU212      0.1567
     76  C        -78.3530   16.3540  -70.9370 C.2   212  GLU212      0.2260
     77  O        -77.2210   16.7190  -70.6710 O.2   212  GLU212     -0.2867
     78  CB       -79.4350   14.2660  -71.8090 C.3   212  GLU212      0.0388
     79  CG       -80.6210   14.0230  -72.7320 C.3   212  GLU212      0.1160
     80  CD       -81.6980   15.1020  -72.6330 C.2   212  GLU212      0.3649
     81  OE1      -81.8970   15.6770  -71.5340 O.co2 212  GLU212     -0.2457
     82  OE2      -82.3710   15.3470  -73.6570 O.co2 212  GLU212     -0.2457
     83  N        -78.2760   11.2690  -75.6350 N.3   220  GLU220     -0.1245
     84  CA       -79.4280   10.8900  -76.4350 C.3   220  GLU220      0.1567
     85  C        -79.1600   10.8540  -77.9240 C.2   220  GLU220      0.2260
     86  O        -78.4440   11.7010  -78.4590 O.2   220  GLU220     -0.2867
     87  CB       -80.5790   11.8570  -76.1950 C.3   220  GLU220      0.0388
     88  CG       -81.8960   11.3190  -76.7030 C.3   220  GLU220      0.1160
     89  CD       -83.0660   12.2810  -76.5380 C.2   220  GLU220      0.3649
     90  OE1      -83.0770   13.1440  -75.6250 O.co2 220  GLU220     -0.2457
     91  OE2      -83.9970   12.1570  -77.3440 O.co2 220  GLU220     -0.2457
     92  N        -81.4920   10.6450  -81.2310 N.3   222  ALA222     -0.1231
     93  CA       -82.8440   10.6920  -81.7740 C.3   222  ALA222      0.1694
     94  C        -82.9150   10.0000  -83.1410 C.2   222  ALA222      0.2592
     95  O        -82.1840   10.3460  -84.0690 O.2   222  ALA222     -0.2718
     96  CB       -83.3020   12.1280  -81.8890 C.3   222  ALA222      0.0304
     97  N        -83.7670    8.9860  -83.2320 N.am  223  THR223     -0.1953
     98  CA       -83.9600    8.2290  -84.4600 C.3   223  THR223      0.1897
     99  C        -85.3440    8.5480  -85.0120 C.2   223  THR223      0.2313
    100  O        -86.2240    9.0050  -84.2720 O.2   223  THR223     -0.2863
    101  CB       -83.8320    6.7260  -84.2110 C.3   223  THR223      0.1794
    102  OG1      -84.6330    6.3540  -83.0820 O.3   223  THR223     -0.2208
    103  CG2      -82.3940    6.3810  -83.9230 C.3   223  THR223      0.0378
    104  N        -89.0820    8.0800  -86.6580 N.3   225  PHE225     -0.1241
    105  CA       -90.2410    7.2350  -86.3590 C.3   225  PHE225      0.1605
    106  C        -90.3570    6.0750  -87.3580 C.2   225  PHE225      0.2264
    107  O        -89.5920    5.9840  -88.3300 O.2   225  PHE225     -0.2867
    108  CB       -91.5150    8.0640  -86.4570 C.3   225  PHE225      0.0534
    109  CG       -91.8500    8.4550  -87.8600 C.ar  225  PHE225     -0.0203
    110  CD1      -91.2760    9.5820  -88.4320 C.ar  225  PHE225     -0.0042
    111  CD2      -92.6660    7.6470  -88.6420 C.ar  225  PHE225     -0.0042
    112  CE1      -91.5010    9.8960  -89.7620 C.ar  225  PHE225     -0.0003
    113  CE2      -92.8970    7.9500  -89.9750 C.ar  225  PHE225     -0.0003
    114  CZ       -92.3140    9.0740  -90.5370 C.ar  225  PHE225     -0.0000
    115  N        -90.1110    9.6840  -74.2920 N.3   269  HIS269     -0.1241
    116  CA       -91.3140   10.3120  -74.8260 C.3   269  HIS269      0.1621
    117  C        -91.7400    9.5040  -76.0500 C.2   269  HIS269      0.2264
    118  O        -90.9020    8.9690  -76.7860 O.2   269  HIS269     -0.2867
    119  CB       -91.0490   11.7490  -75.2920 C.3   269  HIS269      0.0745
    120  CG       -90.5520   12.6820  -74.2270 C.ar  269  HIS269      0.0817
    121  ND1      -89.9300   13.8790  -74.5310 N.ar  269  HIS269     -0.2268
    122  CD2      -90.5860   12.6130  -72.8760 C.ar  269  HIS269      0.1154
    123  CE1      -89.6020   14.4980  -73.4140 C.ar  269  HIS269      0.1986
    124  NE2      -89.9910   13.7500  -72.3920 N.ar  269  HIS269     -0.2212
    125  N        -93.9140    9.8870  -79.4430 N.3   271  HIS271     -0.1226
    126  CA       -94.6630   10.6660  -80.4230 C.3   271  HIS271      0.1752
    127  C        -95.4910    9.6420  -81.1980 C.2   271  HIS271      0.2596
    128  O        -94.9840    8.5870  -81.5780 O.2   271  HIS271     -0.2718
    129  CB       -93.7200   11.3880  -81.3930 C.3   271  HIS271      0.0759
    130  CG       -92.9610   12.5310  -80.7890 C.ar  271  HIS271      0.0818
    131  ND1      -93.4550   13.8180  -80.7550 N.ar  271  HIS271     -0.2268
    132  CD2      -91.7230   12.5930  -80.2460 C.ar  271  HIS271      0.1154
    133  CE1      -92.5520   14.6210  -80.2220 C.ar  271  HIS271      0.1986
    134  NE2      -91.4930   13.9050  -79.9040 N.ar  271  HIS271     -0.2212
    135  N        -96.7630    9.9490  -81.4210 N.am  272  MET272     -0.1965
    136  CA       -97.6550    9.0370  -82.1350 C.3   272  MET272      0.1736
    137  C        -98.6750    9.7350  -83.0260 C.2   272  MET272      0.2617
    138  O        -99.0810   10.8730  -82.7650 O.2   272  MET272     -0.2715
    139  CB       -98.4530    8.2030  -81.1420 C.3   272  MET272      0.0427
    140  CG       -97.6600    7.3380  -80.2300 C.3   272  MET272      0.0599
    141  SD       -98.7860    6.6150  -79.0440 S.3   272  MET272     -0.1393
    142  CE       -98.8830    7.9510  -77.8890 C.3   272  MET272      0.0692
    143  N        -99.1330    8.9990  -84.0360 N.am  273  SER273     -0.1950
    144  CA      -100.1530    9.4600  -84.9770 C.3   273  SER273      0.1924
    145  C       -100.6690    8.2540  -85.7550 C.2   273  SER273      0.2314
    146  O        -99.9890    7.2280  -85.8480 O.2   273  SER273     -0.2863
    147  CB       -99.6020   10.5140  -85.9480 C.3   273  SER273      0.2116
    148  OG       -98.9270    9.9170  -87.0370 O.3   273  SER273     -0.2180
    149  N       -102.7950   11.7920  -92.7340 N.3   280  ASN280     -0.1240
    150  CA      -102.6090   11.8500  -91.2900 C.3   280  ASN280      0.1653
    151  C       -103.9340   12.1040  -90.5730 C.2   280  ASN280      0.2266
    152  O       -104.4070   13.2430  -90.4860 O.2   280  ASN280     -0.2867
    153  CB      -101.5840   12.9310  -90.9360 C.3   280  ASN280      0.1155
    154  CG      -101.1820   12.9060  -89.4710 C.2   280  ASN280      0.2627
    155  OD1     -101.7940   12.2210  -88.6470 O.2   280  ASN280     -0.2716
    156  ND2     -100.1420   13.6620  -89.1410 N.am  280  ASN280     -0.0877
    157  N        -99.1920   17.3680  -92.3210 N.3   352  LYS352     -0.1231
    158  CA       -98.6730   16.0210  -92.5300 C.3   352  LYS352      0.1693
    159  C        -97.9460   15.4740  -91.2900 C.2   352  LYS352      0.2592
    160  O        -97.9620   14.2670  -91.0330 O.2   352  LYS352     -0.2718
    161  CB       -97.7480   16.0030  -93.7640 C.3   352  LYS352      0.0285
    162  CG       -98.4000   15.4270  -95.0290 C.3   352  LYS352      0.0035
    163  CD       -98.5420   13.8930  -94.9260 C.3   352  LYS352      0.0206
    164  CE       -99.7920   13.3470  -95.6450 C.3   352  LYS352      0.1093
    165  NZ      -101.0890   13.5600  -94.9040 N.3   352  LYS352     -0.1314
    166  N        -97.4030   16.3820  -90.4820 N.am  353  ALA353     -0.1966
    167  CA       -96.6480   16.0260  -89.2840 C.3   353  ALA353      0.1728
    168  C        -97.3430   16.2530  -87.9480 C.2   353  ALA353      0.2616
    169  O        -96.6850   16.3360  -86.9150 O.2   353  ALA353     -0.2715
    170  CB       -95.3250   16.7630  -89.2870 C.3   353  ALA353      0.0334
    171  N        -98.6620   16.3590  -87.9540 N.am  354  ARG354     -0.1963
    172  CA       -99.3730   16.5790  -86.7090 C.3   354  ARG354      0.1729
    173  C        -99.4620   15.2730  -85.9160 C.2   354  ARG354      0.2616
    174  O        -99.7060   14.2070  -86.4890 O.2   354  ARG354     -0.2715
    175  CB      -100.7550   17.1680  -86.9870 C.3   354  ARG354      0.0348
    176  CG      -101.2720   17.9680  -85.8210 C.3   354  ARG354      0.0492
    177  CD      -101.8810   19.2850  -86.2450 C.3   354  ARG354      0.2205
    178  NE      -100.9560   20.1950  -86.9080 N.pl3 354  ARG354     -0.0865
    179  CZ      -101.2740   20.8920  -87.9960 C.cat 354  ARG354      0.5346
    180  NH1     -102.4860   20.7660  -88.5300 N.pl3 354  ARG354      0.1354
    181  NH2     -100.3910   21.7180  -88.5430 N.pl3 354  ARG354      0.1354
    182  N        -99.2760   15.3680  -84.5980 N.am  355  ARG355     -0.1977
    183  CA       -99.2870   14.1910  -83.7170 C.3   355  ARG355      0.1597
    184  C        -99.3460   14.5950  -82.2430 C.2   355  ARG355      0.2287
    185  O        -99.4560   15.7740  -81.9160 O.2   355  ARG355     -0.2864
    186  CB       -97.9720   13.4510  -83.9190 C.3   355  ARG355      0.0334
    187  CG       -96.7770   14.3210  -83.5010 C.3   355  ARG355      0.0492
    188  CD       -95.5060   13.8990  -84.1820 C.3   355  ARG355      0.2205
    189  NE       -94.8480   15.0250  -84.8400 N.pl3 355  ARG355     -0.0865
    190  CZ       -93.7150   15.5820  -84.4260 C.cat 355  ARG355      0.5346
    191  NH1      -93.1000   15.1290  -83.3430 N.pl3 355  ARG355      0.1354
    192  NH2      -93.1680   16.5620  -85.1280 N.pl3 355  ARG355      0.1354
@<TRIPOS>BOND
     1   164   163    1
     2   164   165    1
     3   162   163    1
     4   162   161    1
     5   161   158    1
     6   149   150    1
     7   158   157    1
     8   158   159    1
     9   150   153    1
    10   150   151    1
    11   159   160    2
    12   159   166   am
    13   153   154    1
    14   151   152    2
    15   114   113   ar
    16   114   112   ar
    17   166   167    1
    18   113   111   ar
    19   112   110   ar
    20     8     6    1
    21   154   156   am
    22   154   155    2
    23   170   167    1
    24   167   168    1
    25     7     6    1
    26   111   109   ar
    27     6     5    1
    28   181   179    1
    29   180   179    1
    30   110   109   ar
    31    58    56   ar
    32   107   106    2
    33   179   178    2
    34   171   168   am
    35   171   172    1
    36   168   169    2
    37   109   108    1
    38    55    56    1
    39    55    54    1
    40   106   105    1
    41    56    57   ar
    42     5     2    1
    43   148   147    1
    44   175   172    1
    45   175   176    1
    46   178   177    1
    47    51    50    1
    48    51    54    1
    49    51    52    1
    50   172   173    1
    51   104   105    1
    52    53    52    2
    53   174   173    2
    54   108   105    1
    55     2     1    1
    56     2     3    1
    57   177   176    1
    58    52    59   am
    59   147   144    1
    60   173   182   am
    61   146   145    2
    62   145   144    1
    63   192   190    1
    64    99    98    1
    65    99   100    2
    66   144   143    1
    67    59    60    1
    68     3     4    2
    69   189   190    2
    70   189   188    1
    71   182   183    1
    72    98   101    1
    73    98    97    1
    74   190   191    1
    75   101   103    1
    76   101   102    1
    77   188   187    1
    78    60    63    1
    79    60    61    1
    80    95    94    2
    81   143   137   am
    82   186   183    1
    83   186   187    1
    84   183   184    1
    85    97    94   am
    86    94    93    1
    87   137   138    2
    88   137   136    1
    89    61    62    2
    90     9    10    1
    91    10    11    1
    92   184   185    2
    93   136   135    1
    94   136   139    1
    95    96    93    1
    96    93    92    1
    97   128   127    2
    98   135   127   am
    99   129   130    1
   100   129   126    1
   101   127   126    1
   102   139   140    1
   103    11    12    2
   104    11    13   am
   105    19    13    1
   106    19    18    1
   107   130   131   ar
   108   130   132   ar
   109   131   133   ar
   110    13    14    1
   111   126   125    1
   112   132   134   ar
   113   140   141    1
   114   133   134   ar
   115    16    15    2
   116    18    17    1
   117    64    65    1
   118    14    15    1
   119    14    17    1
   120   141   142    1
   121    15    20   am
   122    27    26   ar
   123    71    69   ar
   124    71    73   ar
   125    25    26    1
   126    25    24    1
   127    86    85    2
   128    68    65    1
   129    68    69    1
   130    65    66    1
   131    26    28   ar
   132    20    21    1
   133    85    84    1
   134    69    70   ar
   135    73    72   ar
   136    21    24    1
   137    21    22    1
   138    91    89   ar
   139    66    67    2
   140   118   117    2
   141    88    89    1
   142    88    87    1
   143    70    72   ar
   144    89    90   ar
   145    22    23    2
   146    84    87    1
   147    84    83    1
   148   117   116    1
   149   119   116    1
   150   119   120    1
   151    49    48    1
   152   116   115    1
   153   121   120   ar
   154   121   123   ar
   155   120   122   ar
   156    48    46   ar
   157    48    47   ar
   158    29    30    1
   159    46    44   ar
   160    82    80   ar
   161    47    45   ar
   162   123   124   ar
   163    30    31    1
   164    30    33    1
   165    34    33    1
   166    34    35    1
   167   122   124   ar
   168    44    43   ar
   169    74    75    1
   170    45    43   ar
   171    79    80    1
   172    79    78    1
   173    36    35   ar
   174    80    81   ar
   175    40    41    2
   176    40    39    1
   177    31    32    2
   178    43    42    1
   179    35    37   ar
   180    75    78    1
   181    75    76    1
   182    39    42    1
   183    39    38    1
   184    76    77    2
