@<TRIPOS>MOLECULE
tmp/1f1wA00.pdb
 134 131 0 0 0
SMALL
GASTEIGER

@<TRIPOS>ATOM
      1  N         17.9020   13.1610   38.4520 N.3    12  ARG12      -0.1245
      2  CA        17.0520   12.6990   39.5170 C.3    12  ARG12       0.1563
      3  C         15.8380   13.6160   39.6420 C.2    12  ARG12       0.2260
      4  O         14.7050   13.1510   39.7930 O.2    12  ARG12      -0.2867
      5  CB        17.8350   12.7300   40.8070 C.3    12  ARG12       0.0307
      6  CG        17.0730   12.2830   42.0160 C.3    12  ARG12       0.0489
      7  CD        18.0540   12.3120   43.1760 C.3    12  ARG12       0.2205
      8  NE        17.4260   12.0690   44.4570 N.pl3  12  ARG12      -0.0865
      9  CZ        17.5970   10.9560   45.1600 C.cat  12  ARG12       0.5346
     10  NH1       18.3820    9.9840   44.6960 N.pl3  12  ARG12       0.1354
     11  NH2       16.9760   10.8190   46.3200 N.pl3  12  ARG12       0.1354
     12  N         16.6620    4.7000   35.0590 N.3    32  ARG32      -0.1245
     13  CA        17.4310    5.7640   34.4600 C.3    32  ARG32       0.1563
     14  C         18.8790    5.5710   34.8200 C.2    32  ARG32       0.2260
     15  O         19.1920    4.7780   35.6890 O.2    32  ARG32      -0.2867
     16  CB        16.9690    7.1140   35.0350 C.3    32  ARG32       0.0307
     17  CG        17.0090    7.1790   36.5570 C.3    32  ARG32       0.0489
     18  CD        16.7430    8.5700   37.0670 C.3    32  ARG32       0.2205
     19  NE        16.7400    8.6530   38.5310 N.pl3  32  ARG32      -0.0865
     20  CZ        17.8200    8.8830   39.2770 C.cat  32  ARG32       0.5346
     21  NH1       19.0140    9.0560   38.7180 N.pl3  32  ARG32       0.1354
     22  NH2       17.7220    8.9050   40.5960 N.pl3  32  ARG32       0.1354
     23  N         22.4000    6.6500   36.5110 N.3    34  SER34      -0.1202
     24  CA        22.6970    7.3500   37.7530 C.3    34  SER34       0.2020
     25  C         23.1580    8.7560   37.3510 C.2    34  SER34       0.2619
     26  O         23.8500    8.9120   36.3520 O.2    34  SER34      -0.2717
     27  CB        23.8310    6.6400   38.4880 C.3    34  SER34       0.2103
     28  OG        24.3310    7.4640   39.5210 O.3    34  SER34      -0.2182
     29  N         22.7370    9.7840   38.0740 N.am   35  GLU35      -0.1965
     30  CA        23.1800   11.1290   37.7250 C.3    35  GLU35       0.1733
     31  C         24.4800   11.4610   38.4390 C.2    35  GLU35       0.2617
     32  O         25.0450   12.5300   38.2290 O.2    35  GLU35      -0.2715
     33  CB        22.1210   12.1990   38.0380 C.3    35  GLU35       0.0429
     34  CG        21.8680   12.4920   39.5140 C.3    35  GLU35       0.1163
     35  CD        21.1810   13.8420   39.7380 C.2    35  GLU35       0.3649
     36  OE1       21.2730   14.4080   40.8570 O.co2  35  GLU35      -0.2457
     37  OE2       20.5710   14.3500   38.7830 O.co2  35  GLU35      -0.2457
     38  N         24.9670   10.5270   39.2550 N.am   36  THR36      -0.1951
     39  CA        26.1960   10.7370   40.0180 C.3    36  THR36       0.1897
     40  C         27.3600    9.8160   39.6310 C.2    36  THR36       0.2313
     41  O         28.5110   10.2550   39.5250 O.2    36  THR36      -0.2863
     42  CB        25.9360   10.5980   41.5360 C.3    36  THR36       0.1794
     43  OG1       25.7000    9.2250   41.8840 O.3    36  THR36      -0.2208
     44  CG2       24.7290   11.4070   41.9320 C.3    36  THR36       0.0378
     45  N         23.0740    2.7480   37.3550 N.3    41  TYR41      -0.1227
     46  CA        21.6880    3.0560   36.9850 C.3    41  TYR41       0.1736
     47  C         20.8530    3.1630   38.2540 C.2    41  TYR41       0.2595
     48  O         21.3700    3.0490   39.3700 O.2    41  TYR41      -0.2718
     49  CB        21.0990    1.9630   36.0540 C.3    41  TYR41       0.0548
     50  CG        21.8730    1.7920   34.7780 C.ar   41  TYR41      -0.0200
     51  CD1       23.0120    0.9930   34.7420 C.ar   41  TYR41      -0.0009
     52  CD2       21.5200    2.4880   33.6310 C.ar   41  TYR41      -0.0009
     53  CE1       23.7870    0.9020   33.5930 C.ar   41  TYR41       0.0417
     54  CE2       22.2960    2.4080   32.4740 C.ar   41  TYR41       0.0417
     55  CZ        23.4290    1.6170   32.4690 C.ar   41  TYR41       0.1957
     56  OH        24.2330    1.5660   31.3630 O.3    41  TYR41      -0.2866
     57  N         19.5710    3.4330   38.0760 N.am   42  CYS42      -0.1970
     58  CA        18.6810    3.6110   39.2000 C.3    42  CYS42       0.1712
     59  C         17.2400    3.2730   38.8630 C.2    42  CYS42       0.2296
     60  O         16.7670    3.5140   37.7450 O.2    42  CYS42      -0.2864
     61  CB        18.7490    5.0670   39.6650 C.3    42  CYS42       0.0983
     62  SG        17.4630    5.5260   40.8870 S.3    42  CYS42      -0.0798
     63  N         10.9700    6.7400   45.8440 N.3    57  LYS57      -0.1231
     64  CA        12.1090    6.0430   46.4250 C.3    57  LYS57       0.1693
     65  C         13.0200    5.6690   45.2590 C.2    57  LYS57       0.2592
     66  O         12.5440    5.2640   44.1780 O.2    57  LYS57      -0.2718
     67  CB        11.6790    4.7960   47.1780 C.3    57  LYS57       0.0285
     68  CG        10.9720    5.0880   48.4830 C.3    57  LYS57       0.0035
     69  CD        10.6060    3.7760   49.1650 C.3    57  LYS57       0.0206
     70  CE        10.4520    3.9490   50.6730 C.3    57  LYS57       0.1093
     71  NZ         9.3550    4.8680   51.0610 N.3    57  LYS57      -0.1314
     72  N         14.3160    5.8870   45.4590 N.am   58  HIS58      -0.1962
     73  CA        15.3610    5.5940   44.4610 C.3    58  HIS58       0.1787
     74  C         16.2170    4.4310   44.9540 C.2    58  HIS58       0.2620
     75  O         16.5570    4.3730   46.1410 O.2    58  HIS58      -0.2715
     76  CB        16.2300    6.8370   44.2560 C.3    58  HIS58       0.0785
     77  CG        15.4590    8.0320   43.7970 C.ar   58  HIS58       0.0821
     78  ND1       15.1650    8.2630   42.4680 N.ar   58  HIS58      -0.2267
     79  CD2       14.9270    9.0670   44.4860 C.ar   58  HIS58       0.1154
     80  CE1       14.4930    9.3950   42.3620 C.ar   58  HIS58       0.1986
     81  NE2       14.3350    9.9010   43.5700 N.ar   58  HIS58      -0.2212
     82  N         16.5160    3.4890   44.0580 N.am   59  TYR59      -0.1960
     83  CA        17.3200    2.3000   44.3820 C.3    59  TYR59       0.1771
     84  C         18.5070    2.2690   43.4300 C.2    59  TYR59       0.2619
     85  O         18.2980    2.2700   42.2180 O.2    59  TYR59      -0.2715
     86  CB        16.4850    1.0290   44.1820 C.3    59  TYR59       0.0574
     87  CG        15.3070    0.8930   45.1330 C.ar   59  TYR59      -0.0198
     88  CD1       15.4510    0.2050   46.3320 C.ar   59  TYR59      -0.0009
     89  CD2       14.0780    1.5030   44.8600 C.ar   59  TYR59      -0.0009
     90  CE1       14.4120    0.1260   47.2470 C.ar   59  TYR59       0.0417
     91  CE2       13.0280    1.4410   45.7720 C.ar   59  TYR59       0.0417
     92  CZ        13.2050    0.7460   46.9650 C.ar   59  TYR59       0.1957
     93  OH        12.1920    0.6340   47.8870 O.3    59  TYR59      -0.2866
     94  N         19.7390    2.2630   43.9480 N.am   60  LYS60      -0.1977
     95  CA        20.9090    2.2460   43.0670 C.3    60  LYS60       0.1596
     96  C         21.0850    0.8850   42.4490 C.2    60  LYS60       0.2287
     97  O         21.0840   -0.1360   43.1540 O.2    60  LYS60      -0.2864
     98  CB        22.2020    2.6050   43.7980 C.3    60  LYS60       0.0298
     99  CG        23.4240    2.6100   42.8850 C.3    60  LYS60       0.0038
    100  CD        24.6490    3.3200   43.4870 C.3    60  LYS60       0.0206
    101  CE        25.8790    3.1480   42.5630 C.3    60  LYS60       0.1093
    102  NZ        27.1390    3.7220   43.1090 N.3    60  LYS60      -0.1314
    103  N         20.1080   -4.5620   42.5860 N.3    71  ILE71      -0.1231
    104  CA        19.7920   -3.5360   43.5740 C.3    71  ILE71       0.1692
    105  C         20.4900   -4.0200   44.8600 C.2    71  ILE71       0.2592
    106  O         21.2490   -3.2620   45.4850 O.2    71  ILE71      -0.2718
    107  CB        18.2750   -3.3420   43.7520 C.3    71  ILE71       0.0266
    108  CG1       17.7140   -2.5970   42.5410 C.3    71  ILE71       0.0019
    109  CG2       17.9870   -2.5520   44.9960 C.3    71  ILE71       0.0020
    110  CD1       16.1860   -2.6830   42.4040 C.3    71  ILE71       0.0001
    111  N         20.3040   -5.3060   45.1750 N.am   72  TRP72      -0.1976
    112  CA        20.9440   -5.9810   46.3230 C.3    72  TRP72       0.1640
    113  C         21.7550   -7.1530   45.7230 C.2    72  TRP72       0.2290
    114  O         21.2700   -7.8590   44.8320 O.2    72  TRP72      -0.2864
    115  CB        19.8950   -6.5100   47.3320 C.3    72  TRP72       0.0576
    116  CG        19.0590   -5.4160   47.9710 C.ar   72  TRP72       0.0006
    117  CD1       19.4110   -4.6410   49.0370 C.ar   72  TRP72       0.0946
    118  CD2       17.7640   -4.9470   47.5500 C.ar   72  TRP72       0.0152
    119  NE1       18.4280   -3.7220   49.3060 N.ar   72  TRP72      -0.2442
    120  CE2       17.4070   -3.8820   48.4080 C.ar   72  TRP72       0.0810
    121  CE3       16.8770   -5.3180   46.5310 C.ar   72  TRP72       0.0012
    122  CZ2       16.2030   -3.1840   48.2790 C.ar   72  TRP72       0.0191
    123  CZ3       15.6750   -4.6280   46.4010 C.ar   72  TRP72       0.0001
    124  CH2       15.3490   -3.5690   47.2700 C.ar   72  TRP72       0.0015
    125  N         12.2210   -6.8210   48.5650 N.3    93  GLY93      -0.1225
    126  CA        13.1300   -5.7630   48.9770 C.3    93  GLY93       0.1811
    127  C         12.4160   -4.4260   48.8450 C.2    93  GLY93       0.2280
    128  O         12.5380   -3.5470   49.7010 O.2    93  GLY93      -0.2866
    129  N          9.1650   -1.8590   48.5870 N.3    95  CYS95      -0.1235
    130  CA         7.9860   -1.6970   49.4230 C.3    95  CYS95       0.1677
    131  C          6.8030   -2.3110   48.6980 C.2    95  CYS95       0.2270
    132  O          5.8610   -2.8220   49.3150 O.2    95  CYS95      -0.2867
    133  CB         7.6930   -0.2250   49.6310 C.3    95  CYS95       0.0956
    134  SG         9.0180    0.6290   50.4440 S.3    95  CYS95      -0.0801
@<TRIPOS>BOND
     1    56    55    1
     2    55    54   ar
     3    55    53   ar
     4    54    52   ar
     5    53    51   ar
     6    52    50   ar
     7    13    14    1
     8    13    16    1
     9    13    12    1
    10    51    50   ar
    11    50    49    1
    12    14    15    2
    13    16    17    1
    14    49    46    1
    15    26    25    2
    16    23    24    1
    17    17    18    1
    18    46    45    1
    19    46    47    1
    20    18    19    1
    21    25    24    1
    22    25    29   am
    23    30    33    1
    24    30    29    1
    25    30    31    1
    26    60    59    2
    27    24    27    1
    28    33    34    1
    29    57    47   am
    30    57    58    1
    31    32    31    2
    32    47    48    2
    33    31    38   am
    34     1     2    1
    35    27    28    1
    36    19    20    2
    37    21    20    1
    38    37    35   ar
    39    59    58    1
    40    58    61    1
    41    38    39    1
    42    20    22    1
    43    34    35    1
    44     2     3    1
    45     2     5    1
    46    41    40    2
    47    40    39    1
    48     3     4    2
    49    61    62    1
    50    35    36   ar
    51    39    42    1
    52     5     6    1
    53    42    43    1
    54    42    44    1
    55     6     7    1
    56    85    84    2
    57    80    78   ar
    58    80    81   ar
    59   110   108    1
    60    96    95    1
    61    96    97    2
    62    78    77   ar
    63   108   107    1
    64   101   102    1
    65   101   100    1
    66   103   104    1
    67    99   100    1
    68    99    98    1
    69    95    98    1
    70    95    94    1
    71     7     8    1
    72    84    94   am
    73    84    83    1
    74    81    79   ar
    75   104   107    1
    76   104   105    1
    77   107   109    1
    78    77    76    1
    79    77    79   ar
    80    82    83    1
    81    82    74   am
    82    66    65    2
    83    86    83    1
    84    86    87    1
    85    76    73    1
    86     8     9    2
    87    73    74    1
    88    73    72    1
    89    10     9    1
    90   114   113    2
    91   105   111   am
    92   105   106    2
    93    89    87   ar
    94    89    91   ar
    95    74    75    2
    96    87    88   ar
    97     9    11    1
    98   111   112    1
    99    65    72   am
   100    65    64    1
   101   113   112    1
   102    91    92   ar
   103    63    64    1
   104   112   115    1
   105    88    90   ar
   106   123   121   ar
   107   123   124   ar
   108    64    67    1
   109   121   118   ar
   110    92    90   ar
   111    92    93    1
   112    67    68    1
   113   124   122   ar
   114   115   116    1
   115   118   116   ar
   116   118   120   ar
   117   116   117   ar
   118   122   120   ar
   119   120   119   ar
   120    68    69    1
   121   125   126    1
   122   129   130    1
   123   131   132    2
   124   131   130    1
   125   127   126    1
   126   127   128    2
   127   117   119   ar
   128    69    70    1
   129   130   133    1
   130   133   134    1
   131    70    71    1
