@<TRIPOS>MOLECULE
tmp/1f22A01.pdb
 164 157 0 0 0
SMALL
GASTEIGER

@<TRIPOS>ATOM
      1  N          8.6580   -3.0230    1.5880 N.3     6  TYR6       -0.1241
      2  CA         8.8980   -2.9350    3.0140 C.3     6  TYR6        0.1605
      3  C          9.2450   -4.3330    3.4990 C.2     6  TYR6        0.2264
      4  O          8.3630   -5.1830    3.6310 O.2     6  TYR6       -0.2867
      5  CB         7.6820   -2.3770    3.7590 C.3     6  TYR6        0.0534
      6  CG         7.3650   -0.9260    3.4590 C.ar    6  TYR6       -0.0201
      7  CD1        8.3750    0.0500    3.5570 C.ar    6  TYR6       -0.0009
      8  CD2        6.0820   -0.5600    3.0140 C.ar    6  TYR6       -0.0009
      9  CE1        8.1170    1.3710    3.1620 C.ar    6  TYR6        0.0417
     10  CE2        5.8210    0.7700    2.6440 C.ar    6  TYR6        0.0417
     11  CZ         6.8230    1.7450    2.7710 C.ar    6  TYR6        0.1957
     12  OH         6.5380    3.0530    2.5150 O.3     6  TYR6       -0.2866
     13  N          6.5420   -6.8870    2.3030 N.3    13  VAL13      -0.1231
     14  CA         5.4410   -6.3700    1.5070 C.3    13  VAL13       0.1692
     15  C          6.0500   -5.7140    0.2890 C.2    13  VAL13       0.2593
     16  O          6.6560   -4.6530    0.4290 O.2    13  VAL13      -0.2718
     17  CB         4.6280   -5.3390    2.2980 C.3    13  VAL13       0.0266
     18  CG1        3.5750   -4.6850    1.3960 C.3    13  VAL13       0.0020
     19  CG2        3.9430   -6.0270    3.4690 C.3    13  VAL13       0.0020
     20  N          5.8980   -6.3250   -0.8830 N.am   14  THR14      -0.1939
     21  CA         6.1860   -5.6470   -2.1330 C.3    14  THR14       0.2028
     22  C          4.9680   -4.7880   -2.4350 C.2    14  THR14       0.2642
     23  O          3.8520   -5.3050   -2.4210 O.2    14  THR14      -0.2714
     24  CB         6.4700   -6.6760   -3.2310 C.3    14  THR14       0.1808
     25  OG1        7.5580   -7.4810   -2.8220 O.3    14  THR14      -0.2208
     26  CG2        6.8410   -5.9960   -4.5520 C.3    14  THR14       0.0379
     27  N          5.1660   -3.4880   -2.6540 N.am   15  PHE15      -0.1959
     28  CA         4.0810   -2.5850   -2.9870 C.3    15  PHE15       0.1771
     29  C          4.3600   -1.9360   -4.3350 C.2    15  PHE15       0.2619
     30  O          5.3710   -1.2580   -4.5320 O.2    15  PHE15      -0.2715
     31  CB         3.8420   -1.5580   -1.8760 C.3    15  PHE15       0.0574
     32  CG         5.0310   -0.7220   -1.4780 C.ar   15  PHE15      -0.0200
     33  CD1        5.9370   -1.2190   -0.5270 C.ar   15  PHE15      -0.0042
     34  CD2        5.1700    0.5870   -1.9740 C.ar   15  PHE15      -0.0042
     35  CE1        6.9580   -0.3930   -0.0440 C.ar   15  PHE15      -0.0003
     36  CE2        6.1780    1.4200   -1.4660 C.ar   15  PHE15      -0.0003
     37  CZ         7.0380    0.9410   -0.4630 C.ar   15  PHE15      -0.0000
     38  N          3.4280   -2.1590   -5.2570 N.am   16  ASP16      -0.1971
     39  CA         3.1830   -1.3370   -6.4170 C.3    16  ASP16       0.1709
     40  C          3.3720    0.1400   -6.0860 C.2    16  ASP16       0.2293
     41  O          2.7930    0.6380   -5.1190 O.2    16  ASP16      -0.2864
     42  CB         1.7180   -1.5390   -6.8000 C.3    16  ASP16       0.1436
     43  CG         1.3920   -2.9660   -7.1980 C.2    16  ASP16       0.3671
     44  OD1        1.5750   -3.8400   -6.3200 O.co2  16  ASP16      -0.2456
     45  OD2        0.9680   -3.1370   -8.3600 O.co2  16  ASP16      -0.2456
     46  N          2.5660    1.0940  -11.0590 N.3    19  ALA19      -0.1231
     47  CA         1.2620    0.5000  -11.2990 C.3    19  ALA19       0.1694
     48  C          0.1540    1.2920  -10.6070 C.2    19  ALA19       0.2592
     49  O         -0.7380    1.8240  -11.2580 O.2    19  ALA19      -0.2718
     50  CB         1.2860   -0.9200  -10.7590 C.3    19  ALA19       0.0304
     51  N          0.2080    1.3900   -9.2770 N.am   20  HIS20      -0.1976
     52  CA        -0.8040    2.1150   -8.5240 C.3    20  HIS20       0.1656
     53  C         -0.8920    3.5540   -9.0360 C.2    20  HIS20       0.2291
     54  O         -1.9740    4.1170   -9.1660 O.2    20  HIS20      -0.2864
     55  CB        -0.5080    2.0090   -7.0190 C.3    20  HIS20       0.0771
     56  CG        -1.0030    0.7060   -6.4330 C.ar   20  HIS20       0.0820
     57  ND1       -1.1000   -0.4730   -7.1290 N.ar   20  HIS20      -0.2267
     58  CD2       -1.5900    0.5010   -5.2070 C.ar   20  HIS20       0.1154
     59  CE1       -1.7070   -1.3640   -6.3310 C.ar   20  HIS20       0.1986
     60  NE2       -2.0420   -0.8220   -5.1470 N.ar   20  HIS20      -0.2212
     61  N         -2.7570    3.2730  -12.6400 N.3    23  LYS23      -0.1231
     62  CA        -4.1250    2.8010  -12.5190 C.3    23  LYS23       0.1693
     63  C         -4.9630    3.8100  -11.7390 C.2    23  LYS23       0.2591
     64  O         -6.1050    4.0760  -12.1070 O.2    23  LYS23      -0.2718
     65  CB        -4.1770    1.4300  -11.8320 C.3    23  LYS23       0.0285
     66  CG        -3.3530    0.3240  -12.5030 C.3    23  LYS23       0.0035
     67  CD        -3.5820    0.1780  -14.0070 C.3    23  LYS23       0.0206
     68  CE        -2.8370   -1.0790  -14.4810 C.3    23  LYS23       0.1093
     69  NZ        -2.4080   -0.9660  -15.8870 N.3    23  LYS23      -0.1314
     70  N         -4.4170    4.3210  -10.6330 N.am   24  LEU24      -0.1980
     71  CA        -5.1760    5.0990   -9.6700 C.3    24  LEU24       0.1596
     72  C         -5.0210    6.5900   -9.9780 C.2    24  LEU24       0.2287
     73  O         -6.0240    7.2860  -10.1080 O.2    24  LEU24      -0.2864
     74  CB        -4.7580    4.7370   -8.2360 C.3    24  LEU24       0.0297
     75  CG        -4.5800    3.2200   -8.0090 C.3    24  LEU24       0.0022
     76  CD1       -3.8990    2.9520   -6.6660 C.3    24  LEU24       0.0001
     77  CD2       -5.8970    2.4540   -8.1160 C.3    24  LEU24       0.0001
     78  N         -4.3360    8.9900   -4.9850 N.3    28  ALA28      -0.1231
     79  CA        -4.3830    7.7340   -4.2620 C.3    28  ALA28       0.1694
     80  C         -3.5890    7.7740   -2.9550 C.2    28  ALA28       0.2592
     81  O         -4.0790    7.3170   -1.9240 O.2    28  ALA28      -0.2718
     82  CB        -3.8300    6.6440   -5.1810 C.3    28  ALA28       0.0304
     83  N         -2.3540    8.2790   -3.0260 N.am   29  CYS29      -0.1970
     84  CA        -1.4010    8.2590   -1.9210 C.3    29  CYS29       0.1712
     85  C         -0.7480    9.6260   -1.6770 C.2    29  CYS29       0.2296
     86  O         -0.3520    9.9090   -0.5480 O.2    29  CYS29      -0.2864
     87  CB        -0.3550    7.2150   -2.1990 C.3    29  CYS29       0.0983
     88  SG        -1.1290    5.6190   -2.6340 S.3    29  CYS29      -0.0798
     89  N          5.3360    4.0610    4.9000 N.3    39  ILE39      -0.1245
     90  CA         4.1490    3.4020    5.3990 C.3    39  ILE39       0.1561
     91  C          4.5810    2.2170    6.2630 C.2    39  ILE39       0.2260
     92  O          5.0810    1.2160    5.7580 O.2    39  ILE39      -0.2867
     93  CB         3.2610    3.0310    4.2030 C.3    39  ILE39       0.0252
     94  CG1        2.6590    4.2900    3.5610 C.3    39  ILE39       0.0019
     95  CG2        2.1680    2.0250    4.5640 C.3    39  ILE39       0.0019
     96  CD1        1.8370    5.1610    4.5170 C.3    39  ILE39       0.0001
     97  N         -3.4910    3.7320    5.0700 N.3    48  ALA48      -0.1231
     98  CA        -2.7370    3.7880    3.8200 C.3    48  ALA48       0.1694
     99  C         -3.2160    2.6960    2.8610 C.2    48  ALA48       0.2592
    100  O         -4.1320    2.9230    2.0750 O.2    48  ALA48      -0.2718
    101  CB        -1.2380    3.7510    4.1080 C.3    48  ALA48       0.0304
    102  N         -2.6240    1.5020    2.9160 N.am   49  CYS49      -0.1970
    103  CA        -3.0110    0.4100    2.0330 C.3    49  CYS49       0.1712
    104  C         -4.4560    0.0030    2.3180 C.2    49  CYS49       0.2296
    105  O         -5.3070   -0.0570    1.4260 O.2    49  CYS49      -0.2864
    106  CB        -2.0610   -0.7580    2.1830 C.3    49  CYS49       0.0983
    107  SG        -0.3020   -0.2730    2.2080 S.3    49  CYS49      -0.0798
    108  N         -7.1930    1.2290    3.6330 N.3    51  THR51      -0.1203
    109  CA        -8.4090    2.0180    3.4290 C.3    51  THR51       0.1994
    110  C         -8.9510    1.8340    2.0120 C.2    51  THR51       0.2618
    111  O        -10.1570    1.6950    1.8210 O.2    51  THR51      -0.2717
    112  CB        -8.2190    3.4910    3.8170 C.3    51  THR51       0.1784
    113  OG1       -9.4620    4.1630    3.7940 O.3    51  THR51      -0.2211
    114  CG2       -7.2280    4.2400    2.9250 C.3    51  THR51       0.0376
    115  N         -8.0610    1.7680    1.0210 N.am   52  CYS52      -0.1955
    116  CA        -8.4540    1.3040   -0.2970 C.3    52  CYS52       0.1843
    117  C         -8.7920   -0.1710   -0.2130 C.2    52  CYS52       0.2625
    118  O         -9.8830   -0.5950   -0.5850 O.2    52  CYS52      -0.2714
    119  CB        -7.3290    1.4710   -1.2640 C.3    52  CYS52       0.0997
    120  SG        -7.2500    3.1650   -1.8710 S.3    52  CYS52      -0.0797
    121  N         -7.8430   -0.9590    0.2930 N.am   53  HIS53      -0.1973
    122  CA        -7.9530   -2.4020    0.3600 C.3    53  HIS53       0.1656
    123  C         -8.9340   -2.8640    1.4640 C.2    53  HIS53       0.2291
    124  O         -8.6410   -3.8140    2.1900 O.2    53  HIS53      -0.2864
    125  CB        -6.5420   -2.9680    0.5690 C.3    53  HIS53       0.0771
    126  CG        -5.6350   -3.0450   -0.6360 C.ar   53  HIS53       0.0820
    127  ND1       -4.9160   -4.1720   -0.9160 N.ar   53  HIS53      -0.2267
    128  CD2       -5.1980   -2.0570   -1.4890 C.ar   53  HIS53       0.1154
    129  CE1       -4.0980   -3.8880   -1.9390 C.ar   53  HIS53       0.1986
    130  NE2       -4.2210   -2.6090   -2.3300 N.ar   53  HIS53      -0.2212
    131  N        -11.5440   -4.9770   -1.4970 N.3    56  ASN56      -0.1225
    132  CA       -10.8540   -5.3650   -2.7200 C.3    56  ASN56       0.1785
    133  C        -10.5140   -6.8440   -2.6090 C.2    56  ASN56       0.2597
    134  O        -10.1390   -7.3050   -1.5310 O.2    56  ASN56      -0.2718
    135  CB        -9.5660   -4.5540   -2.9140 C.3    56  ASN56       0.1169
    136  CG        -9.8090   -3.0890   -3.2660 C.2    56  ASN56       0.2627
    137  OD1      -10.9290   -2.5930   -3.2170 O.2    56  ASN56      -0.2716
    138  ND2       -8.7470   -2.3810   -3.6370 N.am   56  ASN56      -0.0877
    139  N        -10.6330   -7.5680   -3.7250 N.am   57  ASN57      -0.1974
    140  CA       -10.3800   -9.0050   -3.8130 C.3    57  ASN57       0.1688
    141  C        -11.3230   -9.7830   -2.8810 C.2    57  ASN57       0.2292
    142  O        -12.2110   -9.2150   -2.2480 O.2    57  ASN57      -0.2864
    143  CB        -8.8970   -9.3320   -3.5320 C.3    57  ASN57       0.1181
    144  CG        -7.9200   -8.6710   -4.5060 C.2    57  ASN57       0.2629
    145  OD1       -7.9550   -7.4600   -4.7080 O.2    57  ASN57      -0.2716
    146  ND2       -7.0380   -9.4680   -5.0990 N.am   57  ASN57      -0.0877
    147  N         -2.9050  -10.6490    0.8160 N.3    64  GLY64      -0.1210
    148  CA        -3.1900   -9.5470   -0.0930 C.3    64  GLY64       0.1956
    149  C         -1.9740   -8.7050   -0.4980 C.2    64  GLY64       0.2612
    150  O         -1.9300   -8.1850   -1.6090 O.2    64  GLY64      -0.2717
    151  N         -1.0290   -8.5100    0.4280 N.am   65  CYS65      -0.1970
    152  CA         0.0460   -7.5300    0.3060 C.3    65  CYS65       0.1712
    153  C          1.3830   -8.1750    0.6790 C.2    65  CYS65       0.2296
    154  O          2.3500   -8.1150   -0.0760 O.2    65  CYS65      -0.2864
    155  CB        -0.2670   -6.3540    1.1980 C.3    65  CYS65       0.0983
    156  SG        -1.9950   -5.8020    0.9740 S.3    65  CYS65      -0.0798
    157  N          3.8060  -11.1160    0.7710 N.3    67  ILE67      -0.1245
    158  CA         4.0070  -12.3990    0.1140 C.3    67  ILE67       0.1561
    159  C          4.4380  -13.4100    1.1890 C.2    67  ILE67       0.2260
    160  O          5.5090  -14.0010    1.0910 O.2    67  ILE67      -0.2867
    161  CB         4.9960  -12.2260   -1.0580 C.3    67  ILE67       0.0252
    162  CG1        4.6490  -11.0040   -1.9370 C.3    67  ILE67       0.0019
    163  CG2        5.0510  -13.4900   -1.9300 C.3    67  ILE67       0.0019
    164  CD1        3.2230  -11.0070   -2.5030 C.3    67  ILE67       0.0001
@<TRIPOS>BOND
     1    69    68    1
     2    68    67    1
     3    67    66    1
     4    61    62    1
     5    62    65    1
     6    62    63    1
     7    66    65    1
     8    64    63    2
     9    63    70   am
    10    47    46    1
    11    47    50    1
    12    47    48    1
    13    49    48    2
    14    70    71    1
    15    48    51   am
    16    73    72    2
    17    72    71    1
    18    71    74    1
    19    51    52    1
    20    54    53    2
    21    53    52    1
    22    52    55    1
    23    45    43   ar
    24    74    75    1
    25    77    75    1
    26    75    76    1
    27    43    42    1
    28    43    44   ar
    29    57    56   ar
    30    57    59   ar
    31    55    56    1
    32    42    39    1
    33    56    58   ar
    34    39    40    1
    35    39    38    1
    36    59    60   ar
    37    40    41    2
    38    38    29   am
    39    58    60   ar
    40    82    79    1
    41   146   144   am
    42    78    79    1
    43   145   144    2
    44    26    24    1
    45    30    29    2
    46   144   143    1
    47    29    28    1
    48    79    80    1
    49   140   139    1
    50   140   143    1
    51   140   141    1
    52   139   133   am
    53   138   136   am
    54   136   137    2
    55   136   135    1
    56    24    25    1
    57    24    21    1
    58    83    80   am
    59    83    84    1
    60    28    27    1
    61    28    31    1
    62    80    81    2
    63   135   132    1
    64   141   142    2
    65   132   133    1
    66   132   131    1
    67    27    22   am
    68    88    87    1
    69   133   134    2
    70   164   162    1
    71    22    23    2
    72    22    21    1
    73   130   129   ar
    74   130   128   ar
    75    87    84    1
    76    21    20    1
    77    34    32   ar
    78    34    36   ar
    79   129   127   ar
    80   162   161    1
    81   163   161    1
    82    84    85    1
    83    31    32    1
    84   120   119    1
    85    85    86    2
    86   150   149    2
    87   128   126   ar
    88    32    33   ar
    89    36    37   ar
    90   119   116    1
    91   161   158    1
    92   127   126   ar
    93    20    15   am
    94   126   125    1
    95   118   117    2
    96    33    35   ar
    97   149   148    1
    98   149   151   am
    99    37    35   ar
   100   116   117    1
   101   116   115    1
   102   117   121   am
   103   148   147    1
   104   154   153    2
   105   158   157    1
   106   158   159    1
   107    15    16    2
   108    15    14    1
   109   121   122    1
   110   152   151    1
   111   152   153    1
   112   152   155    1
   113   122   125    1
   114   122   123    1
   115   156   155    1
   116   115   110   am
   117   160   159    2
   118    18    17    1
   119   105   104    2
   120   123   124    2
   121    14    17    1
   122    14    13    1
   123     1     2    1
   124   111   110    2
   125   110   109    1
   126   103   106    1
   127   103   104    1
   128   103   102    1
   129   100    99    2
   130   106   107    1
   131    17    19    1
   132    12    11    1
   133    10    11   ar
   134    10     8   ar
   135    11     9   ar
   136    99   102   am
   137    99    98    1
   138   114   112    1
   139     8     6   ar
   140     2     3    1
   141     2     5    1
   142     9     7   ar
   143   109   108    1
   144   109   112    1
   145     6     7   ar
   146     6     5    1
   147     3     4    2
   148    94    93    1
   149    94    96    1
   150   113   112    1
   151    98   101    1
   152    98    97    1
   153    93    95    1
   154    93    90    1
   155    89    90    1
   156    90    91    1
   157    92    91    2
