@<TRIPOS>MOLECULE
tmp/1f22A00.pdb
 149 147 0 0 0
SMALL
GASTEIGER

@<TRIPOS>ATOM
      1  N          9.1450    4.8070   -5.9070 N.3     1  ALA1       -0.1245
      2  CA         9.8650    4.7740   -7.1940 C.3     1  ALA1        0.1562
      3  C          8.9660    4.1980   -8.2850 C.2     1  ALA1        0.2260
      4  O          8.1440    4.9270   -8.8370 O.2     1  ALA1       -0.2867
      5  CB        11.2040    4.0390   -7.0640 C.3     1  ALA1        0.0290
      6  N          8.7440   -0.8920   -4.6520 N.3     4  VAL4       -0.1245
      7  CA         9.5750   -1.0080   -3.4620 C.3     4  VAL4        0.1561
      8  C          9.0330   -2.2030   -2.6920 C.2     4  VAL4        0.2260
      9  O          7.9080   -2.6470   -2.9460 O.2     4  VAL4       -0.2867
     10  CB         9.5290    0.2880   -2.6340 C.3     4  VAL4        0.0252
     11  CG1       10.1620    0.1370   -1.2380 C.3     4  VAL4        0.0019
     12  CG2       10.2580    1.4210   -3.3580 C.3     4  VAL4        0.0019
     13  N          8.6580   -3.0230    1.5880 N.3     6  TYR6       -0.1241
     14  CA         8.8980   -2.9350    3.0140 C.3     6  TYR6        0.1605
     15  C          9.2450   -4.3330    3.4990 C.2     6  TYR6        0.2264
     16  O          8.3630   -5.1830    3.6310 O.2     6  TYR6       -0.2867
     17  CB         7.6820   -2.3770    3.7590 C.3     6  TYR6        0.0534
     18  CG         7.3650   -0.9260    3.4590 C.ar    6  TYR6       -0.0201
     19  CD1        8.3750    0.0500    3.5570 C.ar    6  TYR6       -0.0009
     20  CD2        6.0820   -0.5600    3.0140 C.ar    6  TYR6       -0.0009
     21  CE1        8.1170    1.3710    3.1620 C.ar    6  TYR6        0.0417
     22  CE2        5.8210    0.7700    2.6440 C.ar    6  TYR6        0.0417
     23  CZ         6.8230    1.7450    2.7710 C.ar    6  TYR6        0.1957
     24  OH         6.5380    3.0530    2.5150 O.3     6  TYR6       -0.2866
     25  N          5.1660   -3.4880   -2.6540 N.3    15  PHE15      -0.1227
     26  CA         4.0810   -2.5850   -2.9870 C.3    15  PHE15       0.1736
     27  C          4.3600   -1.9360   -4.3350 C.2    15  PHE15       0.2595
     28  O          5.3710   -1.2580   -4.5320 O.2    15  PHE15      -0.2718
     29  CB         3.8420   -1.5580   -1.8760 C.3    15  PHE15       0.0547
     30  CG         5.0310   -0.7220   -1.4780 C.ar   15  PHE15      -0.0202
     31  CD1        5.9370   -1.2190   -0.5270 C.ar   15  PHE15      -0.0042
     32  CD2        5.1700    0.5870   -1.9740 C.ar   15  PHE15      -0.0042
     33  CE1        6.9580   -0.3930   -0.0440 C.ar   15  PHE15      -0.0003
     34  CE2        6.1780    1.4200   -1.4660 C.ar   15  PHE15      -0.0003
     35  CZ         7.0380    0.9410   -0.4630 C.ar   15  PHE15      -0.0000
     36  N          3.4280   -2.1590   -5.2570 N.am   16  ASP16      -0.1960
     37  CA         3.1830   -1.3370   -6.4170 C.3    16  ASP16       0.1840
     38  C          3.3720    0.1400   -6.0860 C.2    16  ASP16       0.2622
     39  O          2.7930    0.6380   -5.1190 O.2    16  ASP16      -0.2715
     40  CB         1.7180   -1.5390   -6.8000 C.3    16  ASP16       0.1450
     41  CG         1.3920   -2.9660   -7.1980 C.2    16  ASP16       0.3671
     42  OD1        1.5750   -3.8400   -6.3200 O.co2  16  ASP16      -0.2456
     43  OD2        0.9680   -3.1370   -8.3600 O.co2  16  ASP16      -0.2456
     44  N          4.1330    0.8490   -6.9200 N.am   17  HIS17      -0.1973
     45  CA         4.1830    2.2980   -6.8960 C.3    17  HIS17       0.1656
     46  C          3.7400    2.7990   -8.2730 C.2    17  HIS17       0.2291
     47  O          2.6810    3.4030   -8.4040 O.2    17  HIS17      -0.2864
     48  CB         5.5870    2.7350   -6.4580 C.3    17  HIS17       0.0771
     49  CG         5.7190    4.2130   -6.2730 C.ar   17  HIS17       0.0820
     50  ND1        6.0770    5.1210   -7.2390 N.ar   17  HIS17      -0.2267
     51  CD2        5.3200    4.9110   -5.1720 C.ar   17  HIS17       0.1154
     52  CE1        5.9180    6.3450   -6.7190 C.ar   17  HIS17       0.1986
     53  NE2        5.4410    6.2670   -5.4710 N.ar   17  HIS17      -0.2212
     54  N          0.2080    1.3900   -9.2770 N.3    20  HIS20      -0.1226
     55  CA        -0.8040    2.1150   -8.5240 C.3    20  HIS20       0.1752
     56  C         -0.8920    3.5540   -9.0360 C.2    20  HIS20       0.2595
     57  O         -1.9740    4.1170   -9.1660 O.2    20  HIS20      -0.2718
     58  CB        -0.5080    2.0090   -7.0190 C.3    20  HIS20       0.0759
     59  CG        -1.0030    0.7060   -6.4330 C.ar   20  HIS20       0.0818
     60  ND1       -1.1000   -0.4730   -7.1290 N.ar   20  HIS20      -0.2268
     61  CD2       -1.5900    0.5010   -5.2070 C.ar   20  HIS20       0.1154
     62  CE1       -1.7070   -1.3640   -6.3310 C.ar   20  HIS20       0.1986
     63  NE2       -2.0420   -0.8220   -5.1470 N.ar   20  HIS20      -0.2212
     64  N          0.2430    4.1410   -9.4000 N.am   21  ALA21      -0.1980
     65  CA         0.2490    5.4870   -9.9470 C.3    21  ALA21       0.1597
     66  C         -0.5700    5.5450  -11.2450 C.2    21  ALA21       0.2287
     67  O         -1.4900    6.3430  -11.3570 O.2    21  ALA21      -0.2864
     68  CB         1.6860    5.9920  -10.1030 C.3    21  ALA21       0.0319
     69  N         -4.4170    4.3210  -10.6330 N.3    24  LEU24      -0.1231
     70  CA        -5.1760    5.0990   -9.6700 C.3    24  LEU24       0.1693
     71  C         -5.0210    6.5900   -9.9780 C.2    24  LEU24       0.2593
     72  O         -6.0240    7.2860  -10.1080 O.2    24  LEU24      -0.2718
     73  CB        -4.7580    4.7370   -8.2360 C.3    24  LEU24       0.0284
     74  CG        -4.5800    3.2200   -8.0090 C.3    24  LEU24       0.0019
     75  CD1       -3.8990    2.9520   -6.6660 C.3    24  LEU24       0.0001
     76  CD2       -5.8970    2.4540   -8.1160 C.3    24  LEU24       0.0001
     77  N         -3.7820    7.0750  -10.1330 N.am   25  GLY25      -0.1942
     78  CA        -3.5010    8.4450  -10.5190 C.3    25  GLY25       0.2014
     79  C         -2.2410    8.8990   -9.7980 C.2    25  GLY25       0.2639
     80  O         -1.1530    8.8980  -10.3700 O.2    25  GLY25      -0.2714
     81  N         -2.3970    9.2840   -8.5320 N.am   26  CYS26      -0.1967
     82  CA        -1.3270    9.8190   -7.6810 C.3    26  CYS26       0.1712
     83  C         -1.9320   10.2040   -6.3360 C.2    26  CYS26       0.2296
     84  O         -1.4930    9.7560   -5.2740 O.2    26  CYS26      -0.2864
     85  CB        -0.6580   11.0330   -8.3120 C.3    26  CYS26       0.0983
     86  SG         1.0710   11.1580   -7.7940 S.3    26  CYS26      -0.0798
     87  N         -4.3360    8.9900   -4.9850 N.3    28  ALA28      -0.1231
     88  CA        -4.3830    7.7340   -4.2620 C.3    28  ALA28       0.1694
     89  C         -3.5890    7.7740   -2.9550 C.2    28  ALA28       0.2592
     90  O         -4.0790    7.3170   -1.9240 O.2    28  ALA28      -0.2718
     91  CB        -3.8300    6.6440   -5.1810 C.3    28  ALA28       0.0304
     92  N         -2.3540    8.2790   -3.0260 N.am   29  CYS29      -0.1956
     93  CA        -1.4010    8.2590   -1.9210 C.3    29  CYS29       0.1843
     94  C         -0.7480    9.6260   -1.6770 C.2    29  CYS29       0.2625
     95  O         -0.3520    9.9090   -0.5480 O.2    29  CYS29      -0.2714
     96  CB        -0.3550    7.2150   -2.1990 C.3    29  CYS29       0.0997
     97  SG        -1.1290    5.6190   -2.6340 S.3    29  CYS29      -0.0797
     98  N         -0.5960   10.4650   -2.7100 N.am   30  HIS30      -0.1973
     99  CA         0.0450   11.7680   -2.6160 C.3    30  HIS30       0.1656
    100  C         -0.8840   12.8150   -3.2210 C.2    30  HIS30       0.2291
    101  O         -1.1750   12.7560   -4.4120 O.2    30  HIS30      -0.2864
    102  CB         1.3570   11.7800   -3.4040 C.3    30  HIS30       0.0771
    103  CG         2.3380   10.7050   -3.0360 C.ar   30  HIS30       0.0820
    104  ND1        3.3600   10.8070   -2.1210 N.ar   30  HIS30      -0.2267
    105  CD2        2.6240    9.6460   -3.8360 C.ar   30  HIS30       0.1154
    106  CE1        4.2440    9.8140   -2.3860 C.ar   30  HIS30       0.1986
    107  NE2        3.8360    9.1000   -3.4420 N.ar   30  HIS30      -0.2212
    108  N          5.0230   14.9460   -3.7520 N.3    34  PRO34      -0.2102
    109  CA         5.5530   13.7830   -3.0690 C.3    34  PRO34       0.1504
    110  C          7.0120   14.0210   -2.6710 C.2    34  PRO34       0.2576
    111  O          7.5970   15.0550   -2.9840 O.2    34  PRO34      -0.2718
    112  CB         5.4080   12.6360   -4.0550 C.3    34  PRO34       0.0282
    113  CG         5.5550   13.3230   -5.4070 C.3    34  PRO34       0.0208
    114  CD         4.9860   14.7250   -5.1870 C.3    34  PRO34       0.0893
    115  N          7.5980   13.0440   -1.9770 N.am   35  ALA35      -0.1966
    116  CA         8.9440   13.1330   -1.4160 C.3    35  ALA35       0.1728
    117  C          9.3930   11.7870   -0.8440 C.2    35  ALA35       0.2616
    118  O         10.5790   11.4780   -0.8640 O.2    35  ALA35      -0.2715
    119  CB         8.9850   14.1950   -0.3100 C.3    35  ALA35       0.0334
    120  N          8.4340   11.0260   -0.3050 N.am   36  LYS36      -0.1963
    121  CA         8.5350    9.7680    0.4240 C.3    36  LYS36       0.1728
    122  C          7.2150    9.6280    1.1750 C.2    36  LYS36       0.2616
    123  O          6.4280   10.5760    1.1710 O.2    36  LYS36      -0.2715
    124  CB         9.7380    9.7140    1.3860 C.3    36  LYS36       0.0311
    125  CG         9.8030   10.8660    2.4080 C.3    36  LYS36       0.0038
    126  CD         9.1390   10.5830    3.7690 C.3    36  LYS36       0.0206
    127  CE         9.8820    9.5180    4.5960 C.3    36  LYS36       0.1093
    128  NZ         9.1970    9.2330    5.8760 N.3    36  LYS36      -0.1314
    129  N          6.9910    8.5010    1.8570 N.am   37  ILE37      -0.1963
    130  CA         5.9720    8.4230    2.9010 C.3    37  ILE37       0.1727
    131  C          6.5760    7.7250    4.1110 C.2    37  ILE37       0.2616
    132  O          6.7480    8.3350    5.1670 O.2    37  ILE37      -0.2715
    133  CB         4.6650    7.7510    2.4270 C.3    37  ILE37       0.0290
    134  CG1        4.2540    8.2570    1.0370 C.3    37  ILE37       0.0022
    135  CG2        3.5630    8.0400    3.4550 C.3    37  ILE37       0.0023
    136  CD1        2.8960    7.7410    0.5500 C.3    37  ILE37       0.0001
    137  N          6.9660    6.4720    3.9010 N.am   38  ALA38      -0.1963
    138  CA         7.2890    5.4720    4.9070 C.3    38  ALA38       0.1728
    139  C          6.0050    4.9960    5.5710 C.2    38  ALA38       0.2616
    140  O          5.6060    5.4880    6.6230 O.2    38  ALA38      -0.2715
    141  CB         8.3430    5.9610    5.8920 C.3    38  ALA38       0.0334
    142  N          5.3360    4.0610    4.9000 N.am   39  ILE39      -0.1977
    143  CA         4.1490    3.4020    5.3990 C.3    39  ILE39       0.1596
    144  C          4.5810    2.2170    6.2630 C.2    39  ILE39       0.2287
    145  O          5.0810    1.2160    5.7580 O.2    39  ILE39      -0.2864
    146  CB         3.2610    3.0310    4.2030 C.3    39  ILE39       0.0276
    147  CG1        2.6590    4.2900    3.5610 C.3    39  ILE39       0.0022
    148  CG2        2.1680    2.0250    4.5640 C.3    39  ILE39       0.0022
    149  CD1        1.8370    5.1610    4.5170 C.3    39  ILE39       0.0001
@<TRIPOS>BOND
     1    67    66    2
     2    66    65    1
     3    69    70    1
     4    78    77    1
     5    78    79    1
     6    80    79    2
     7    77    71   am
     8    72    71    2
     9    68    65    1
    10    71    70    1
    11    65    64    1
    12    79    81   am
    13    70    73    1
    14    64    56   am
    15    54    55    1
    16    57    56    2
    17    56    55    1
    18     4     3    2
    19    81    82    1
    20    55    58    1
    21    47    46    2
    22    43    41   ar
    23    85    86    1
    24    85    82    1
    25     3     2    1
    26    46    45    1
    27    73    74    1
    28    76    74    1
    29    74    75    1
    30    82    83    1
    31    50    52   ar
    32    50    49   ar
    33    41    40    1
    34    41    42   ar
    35     2     5    1
    36     2     1    1
    37    60    59   ar
    38    60    62   ar
    39    58    59    1
    40    44    45    1
    41    44    38   am
    42    45    48    1
    43    40    37    1
    44    52    53   ar
    45    48    49    1
    46    59    61   ar
    47    37    38    1
    48    37    36    1
    49    83    84    2
    50    62    63   ar
    51    49    51   ar
    52    38    39    2
    53    53    51   ar
    54   113   114    1
    55   113   112    1
    56    36    27   am
    57    61    63   ar
    58   114   108    1
    59    91    88    1
    60    87    88    1
    61     6     7    1
    62    28    27    2
    63   101   100    2
    64    27    26    1
    65    88    89    1
    66   112   109    1
    67   105   107   ar
    68   105   103   ar
    69   108   109    1
    70     7     8    1
    71     7    10    1
    72   107   106   ar
    73   102   103    1
    74   102    99    1
    75    12    10    1
    76   100    99    1
    77   109   110    1
    78   103   104   ar
    79    92    89   am
    80    92    93    1
    81    26    25    1
    82    26    29    1
    83   111   110    2
    84    89    90    2
    85     9     8    2
    86    98    99    1
    87    98    94   am
    88   110   115   am
    89    97    96    1
    90    10    11    1
    91   106   104   ar
    92    96    93    1
    93   115   116    1
    94    32    30   ar
    95    32    34   ar
    96    93    94    1
    97    29    30    1
    98    94    95    2
    99    30    31   ar
   100    34    35   ar
   101   116   117    1
   102   116   119    1
   103   118   117    2
   104   117   120   am
   105    31    33   ar
   106    35    33   ar
   107   120   121    1
   108   121   122    1
   109   121   124    1
   110   136   134    1
   111   134   133    1
   112   123   122    2
   113   122   129   am
   114   124   125    1
   115    13    14    1
   116   129   130    1
   117   125   126    1
   118   133   130    1
   119   133   135    1
   120    24    23    1
   121    22    23   ar
   122    22    20   ar
   123    23    21   ar
   124   130   131    1
   125    14    15    1
   126    14    17    1
   127    20    18   ar
   128    21    19   ar
   129    18    19   ar
   130    18    17    1
   131    15    16    2
   132   147   146    1
   133   147   149    1
   134   126   127    1
   135   137   131   am
   136   137   138    1
   137   131   132    2
   138   146   148    1
   139   146   143    1
   140   127   128    1
   141   142   143    1
   142   142   139   am
   143   138   139    1
   144   138   141    1
   145   143   144    1
   146   139   140    2
   147   145   144    2
