@<TRIPOS>MOLECULE
tmp/1f22A02.pdb
 165 161 0 0 0
SMALL
GASTEIGER

@<TRIPOS>ATOM
      1  N          8.6580   -3.0230    1.5880 N.3     6  TYR6       -0.1227
      2  CA         8.8980   -2.9350    3.0140 C.3     6  TYR6        0.1736
      3  C          9.2450   -4.3330    3.4990 C.2     6  TYR6        0.2595
      4  O          8.3630   -5.1830    3.6310 O.2     6  TYR6       -0.2718
      5  CB         7.6820   -2.3770    3.7590 C.3     6  TYR6        0.0548
      6  CG         7.3650   -0.9260    3.4590 C.ar    6  TYR6       -0.0200
      7  CD1        8.3750    0.0500    3.5570 C.ar    6  TYR6       -0.0009
      8  CD2        6.0820   -0.5600    3.0140 C.ar    6  TYR6       -0.0009
      9  CE1        8.1170    1.3710    3.1620 C.ar    6  TYR6        0.0417
     10  CE2        5.8210    0.7700    2.6440 C.ar    6  TYR6        0.0417
     11  CZ         6.8230    1.7450    2.7710 C.ar    6  TYR6        0.1957
     12  OH         6.5380    3.0530    2.5150 O.3     6  TYR6       -0.2866
     13  N         10.5350   -4.5790    3.7270 N.am    7  GLU7       -0.1965
     14  CA        10.9740   -5.8080    4.3480 C.3     7  GLU7        0.1733
     15  C         10.5490   -5.8300    5.8190 C.2     7  GLU7        0.2616
     16  O         10.6820   -4.8370    6.5280 O.2     7  GLU7       -0.2715
     17  CB        12.4820   -6.0240    4.1430 C.3     7  GLU7        0.0429
     18  CG        13.3650   -4.8370    4.5620 C.3     7  GLU7        0.1163
     19  CD        14.8510   -5.1590    4.4270 C.2     7  GLU7        0.3649
     20  OE1       15.1740   -6.3660    4.3580 O.co2   7  GLU7       -0.2457
     21  OE2       15.6380   -4.1900    4.3940 O.co2   7  GLU7       -0.2457
     22  N         10.0170   -6.9680    6.2720 N.am    8  ASN8       -0.1958
     23  CA         9.5890   -7.1730    7.6480 C.3     8  ASN8        0.1819
     24  C          9.6570   -8.6580    7.9720 C.2     8  ASN8        0.2621
     25  O          9.5610   -9.4930    7.0740 O.2     8  ASN8       -0.2715
     26  CB         8.1800   -6.6110    7.8880 C.3     8  ASN8        0.1195
     27  CG         7.1690   -7.0100    6.8240 C.2     8  ASN8        0.2630
     28  OD1        6.9300   -8.1900    6.5980 O.2     8  ASN8       -0.2716
     29  ND2        6.5540   -6.0360    6.1750 N.am    8  ASN8       -0.0877
     30  N          9.8420   -8.9770    9.2590 N.am    9  LYS9       -0.1963
     31  CA        10.0120  -10.3430    9.7390 C.3     9  LYS9        0.1728
     32  C          8.8100  -11.2020    9.3580 C.2     9  LYS9        0.2616
     33  O          8.9640  -12.3700    9.0130 O.2     9  LYS9       -0.2715
     34  CB        10.2160  -10.3350   11.2610 C.3     9  LYS9        0.0311
     35  CG        10.6260  -11.7230   11.7860 C.3     9  LYS9        0.0038
     36  CD         9.6540  -12.3120   12.8210 C.3     9  LYS9        0.0206
     37  CE         8.3170  -12.7340   12.1900 C.3     9  LYS9        0.1093
     38  NZ         7.4490  -13.4580   13.1400 N.3     9  LYS9       -0.1314
     39  N          7.6130  -10.6180    9.4670 N.am   10  LYS10      -0.1977
     40  CA         6.3800  -11.1520    8.9150 C.3    10  LYS10       0.1596
     41  C          6.6470  -11.7660    7.5310 C.2    10  LYS10       0.2287
     42  O          6.4250  -12.9600    7.3310 O.2    10  LYS10      -0.2864
     43  CB         5.3390  -10.0200    8.9190 C.3    10  LYS10       0.0298
     44  CG         4.2740  -10.1490    7.8340 C.3    10  LYS10       0.0038
     45  CD         3.7690  -11.5930    7.6540 C.3    10  LYS10       0.0206
     46  CE         2.3070  -11.7660    7.9760 C.3    10  LYS10       0.1093
     47  NZ         1.4680  -11.4180    6.8100 N.3    10  LYS10      -0.1314
     48  N          6.5420   -6.8870    2.3030 N.3    13  VAL13      -0.1245
     49  CA         5.4410   -6.3700    1.5070 C.3    13  VAL13       0.1561
     50  C          6.0500   -5.7140    0.2890 C.2    13  VAL13       0.2260
     51  O          6.6560   -4.6530    0.4290 O.2    13  VAL13      -0.2867
     52  CB         4.6280   -5.3390    2.2980 C.3    13  VAL13       0.0252
     53  CG1        3.5750   -4.6850    1.3960 C.3    13  VAL13       0.0019
     54  CG2        3.9430   -6.0270    3.4690 C.3    13  VAL13       0.0019
     55  N          5.1660   -3.4880   -2.6540 N.3    15  PHE15      -0.1241
     56  CA         4.0810   -2.5850   -2.9870 C.3    15  PHE15       0.1605
     57  C          4.3600   -1.9360   -4.3350 C.2    15  PHE15       0.2264
     58  O          5.3710   -1.2580   -4.5320 O.2    15  PHE15      -0.2867
     59  CB         3.8420   -1.5580   -1.8760 C.3    15  PHE15       0.0534
     60  CG         5.0310   -0.7220   -1.4780 C.ar   15  PHE15      -0.0203
     61  CD1        5.9370   -1.2190   -0.5270 C.ar   15  PHE15      -0.0042
     62  CD2        5.1700    0.5870   -1.9740 C.ar   15  PHE15      -0.0042
     63  CE1        6.9580   -0.3930   -0.0440 C.ar   15  PHE15      -0.0003
     64  CE2        6.1780    1.4200   -1.4660 C.ar   15  PHE15      -0.0003
     65  CZ         7.0380    0.9410   -0.4630 C.ar   15  PHE15      -0.0000
     66  N          5.3360    4.0610    4.9000 N.3    39  ILE39      -0.1231
     67  CA         4.1490    3.4020    5.3990 C.3    39  ILE39       0.1692
     68  C          4.5810    2.2170    6.2630 C.2    39  ILE39       0.2592
     69  O          5.0810    1.2160    5.7580 O.2    39  ILE39      -0.2718
     70  CB         3.2610    3.0310    4.2030 C.3    39  ILE39       0.0266
     71  CG1        2.6590    4.2900    3.5610 C.3    39  ILE39       0.0019
     72  CG2        2.1680    2.0250    4.5640 C.3    39  ILE39       0.0020
     73  CD1        1.8370    5.1610    4.5170 C.3    39  ILE39       0.0001
     74  N          4.3620    2.3610    7.5690 N.am   40  ASP40      -0.1960
     75  CA         4.6320    1.3480    8.5830 C.3    40  ASP40       0.1840
     76  C          3.3460    0.5640    8.7860 C.2    40  ASP40       0.2621
     77  O          2.2660    1.0460    8.4410 O.2    40  ASP40      -0.2715
     78  CB         4.9250    1.9570    9.9650 C.3    40  ASP40       0.1450
     79  CG         6.1460    2.8490   10.1270 C.2    40  ASP40       0.3671
     80  OD1        6.8770    3.0700    9.1430 O.co2  40  ASP40      -0.2456
     81  OD2        6.3120    3.2940   11.2880 O.co2  40  ASP40      -0.2456
     82  N          3.4550   -0.5830    9.4580 N.am   41  LYS41      -0.1977
     83  CA         2.3500   -1.4650    9.7990 C.3    41  LYS41       0.1596
     84  C          1.1120   -0.7100   10.2720 C.2    41  LYS41       0.2287
     85  O          0.0030   -0.9930    9.8280 O.2    41  LYS41      -0.2864
     86  CB         2.8400   -2.4860   10.8230 C.3    41  LYS41       0.0298
     87  CG         3.1860   -1.9470   12.2190 C.3    41  LYS41       0.0038
     88  CD         3.9940   -3.0490   12.9090 C.3    41  LYS41       0.0206
     89  CE         4.1080   -2.9400   14.4350 C.3    41  LYS41       0.1093
     90  NZ         3.8270   -4.2530   15.0520 N.3    41  LYS41      -0.1314
     91  N         -0.2260    1.4980    7.2490 N.3    44  ALA44      -0.1231
     92  CA        -0.4700    0.4390    6.2860 C.3    44  ALA44       0.1694
     93  C         -1.8050   -0.2550    6.5310 C.2    44  ALA44       0.2592
     94  O         -2.6710   -0.2950    5.6540 O.2    44  ALA44      -0.2718
     95  CB         0.6710   -0.5670    6.3840 C.3    44  ALA44       0.0304
     96  N         -1.9540   -0.8050    7.7380 N.am   45  HIS45      -0.1976
     97  CA        -3.1330   -1.5500    8.1310 C.3    45  HIS45       0.1656
     98  C         -4.3070   -0.6270    8.4680 C.2    45  HIS45       0.2291
     99  O         -5.4290   -1.1310    8.5590 O.2    45  HIS45      -0.2864
    100  CB        -2.8170   -2.4220    9.3500 C.3    45  HIS45       0.0771
    101  CG        -2.0230   -3.6830    9.1060 C.ar   45  HIS45       0.0820
    102  ND1       -1.9410   -4.7020   10.0240 N.ar   45  HIS45      -0.2267
    103  CD2       -1.2650   -4.0470    8.0130 C.ar   45  HIS45       0.1154
    104  CE1       -1.1650   -5.6560    9.4980 C.ar   45  HIS45       0.1986
    105  NE2       -0.7330   -5.3170    8.2760 N.ar   45  HIS45      -0.2212
    106  N         -2.6240    1.5020    2.9160 N.3    49  CYS49      -0.1221
    107  CA        -3.0110    0.4100    2.0330 C.3    49  CYS49       0.1808
    108  C         -4.4560    0.0030    2.3180 C.2    49  CYS49       0.2601
    109  O         -5.3070   -0.0570    1.4260 O.2    49  CYS49      -0.2717
    110  CB        -2.0610   -0.7580    2.1830 C.3    49  CYS49       0.0970
    111  SG        -0.3020   -0.2730    2.2080 S.3    49  CYS49      -0.0800
    112  N         -4.7340   -0.2810    3.5930 N.am   50  LYS50      -0.1979
    113  CA        -5.9790   -0.9020    4.0000 C.3    50  LYS50       0.1596
    114  C         -7.2100   -0.1060    3.5630 C.2    50  LYS50       0.2287
    115  O         -8.2090   -0.7200    3.2200 O.2    50  LYS50      -0.2864
    116  CB        -5.9910   -1.0680    5.5220 C.3    50  LYS50       0.0298
    117  CG        -7.0800   -2.0450    5.9890 C.3    50  LYS50       0.0038
    118  CD        -6.6400   -3.5080    5.8050 C.3    50  LYS50       0.0206
    119  CE        -6.7410   -4.2870    7.1230 C.3    50  LYS50       0.1093
    120  NZ        -5.8050   -3.7750    8.1470 N.3    50  LYS50      -0.1314
    121  N         -7.8430   -0.9590    0.2930 N.3    53  HIS53      -0.1241
    122  CA        -7.9530   -2.4020    0.3600 C.3    53  HIS53       0.1621
    123  C         -8.9340   -2.8640    1.4640 C.2    53  HIS53       0.2264
    124  O         -8.6410   -3.8140    2.1900 O.2    53  HIS53      -0.2867
    125  CB        -6.5420   -2.9680    0.5690 C.3    53  HIS53       0.0745
    126  CG        -5.6350   -3.0450   -0.6360 C.ar   53  HIS53       0.0817
    127  ND1       -4.9160   -4.1720   -0.9160 N.ar   53  HIS53      -0.2268
    128  CD2       -5.1980   -2.0570   -1.4890 C.ar   53  HIS53       0.1154
    129  CE1       -4.0980   -3.8880   -1.9390 C.ar   53  HIS53       0.1986
    130  NE2       -4.2210   -2.6090   -2.3300 N.ar   53  HIS53      -0.2212
    131  N         -7.9740  -13.0400    5.3950 N.3    61  LYS61      -0.1231
    132  CA        -7.1790  -12.4730    6.4710 C.3    61  LYS61       0.1693
    133  C         -6.0000  -11.6430    5.9470 C.2    61  LYS61       0.2592
    134  O         -6.0360  -10.4160    6.0260 O.2    61  LYS61      -0.2718
    135  CB        -6.7590  -13.5500    7.4770 C.3    61  LYS61       0.0285
    136  CG        -7.9560  -14.4130    7.8990 C.3    61  LYS61       0.0035
    137  CD        -7.5780  -15.1600    9.1760 C.3    61  LYS61       0.0206
    138  CE        -8.6490  -16.1810    9.5880 C.3    61  LYS61       0.1093
    139  NZ        -8.3180  -16.8440   10.8680 N.3    61  LYS61      -0.1314
    140  N         -4.9630  -12.3080    5.4330 N.am   62  CYS62      -0.1970
    141  CA        -3.7060  -11.7080    5.0170 C.3    62  CYS62       0.1712
    142  C         -3.4440  -11.9960    3.5380 C.2    62  CYS62       0.2296
    143  O         -4.3780  -12.1260    2.7510 O.2    62  CYS62      -0.2864
    144  CB        -2.5800  -12.1880    5.9100 C.3    62  CYS62       0.0983
    145  SG        -3.0390  -12.3100    7.6640 S.3    62  CYS62      -0.0798
    146  N         -2.9050  -10.6490    0.8160 N.3    64  GLY64      -0.1210
    147  CA        -3.1900   -9.5470   -0.0930 C.3    64  GLY64       0.1956
    148  C         -1.9740   -8.7050   -0.4980 C.2    64  GLY64       0.2612
    149  O         -1.9300   -8.1850   -1.6090 O.2    64  GLY64      -0.2717
    150  N         -1.0290   -8.5100    0.4280 N.am   65  CYS65      -0.1956
    151  CA         0.0460   -7.5300    0.3060 C.3    65  CYS65       0.1843
    152  C          1.3830   -8.1750    0.6790 C.2    65  CYS65       0.2625
    153  O          2.3500   -8.1150   -0.0760 O.2    65  CYS65      -0.2714
    154  CB        -0.2670   -6.3540    1.1980 C.3    65  CYS65       0.0997
    155  SG        -1.9950   -5.8020    0.9740 S.3    65  CYS65      -0.0797
    156  N          1.4430   -8.8060    1.8560 N.am   66  HIS66      -0.1973
    157  CA         2.6060   -9.5850    2.2470 C.3    66  HIS66       0.1656
    158  C          2.6640  -10.8380    1.3940 C.2    66  HIS66       0.2291
    159  O          1.7140  -11.6190    1.4110 O.2    66  HIS66      -0.2864
    160  CB         2.4880  -10.0660    3.6910 C.3    66  HIS66       0.0771
    161  CG         2.4110   -8.9820    4.7060 C.ar   66  HIS66       0.0820
    162  ND1        3.4750   -8.3800    5.3270 N.ar   66  HIS66      -0.2267
    163  CD2        1.2640   -8.4770    5.2460 C.ar   66  HIS66       0.1154
    164  CE1        2.9720   -7.4690    6.1690 C.ar   66  HIS66       0.1986
    165  NE2        1.6340   -7.5040    6.1570 N.ar   66  HIS66      -0.2212
@<TRIPOS>BOND
     1    58    57    2
     2    57    56    1
     3    56    55    1
     4    56    59    1
     5   130   129   ar
     6   130   128   ar
     7    62    60   ar
     8    62    64   ar
     9   129   127   ar
    10    59    60    1
    11   149   148    2
    12   128   126   ar
    13    60    61   ar
    14    64    65   ar
    15   127   126   ar
    16   126   125    1
    17    61    63   ar
    18   148   147    1
    19   148   150   am
    20    65    63   ar
    21   147   146    1
    22   153   152    2
    23    50    51    2
    24    50    49    1
    25   121   122    1
    26   151   150    1
    27   151   152    1
    28   151   154    1
    29   122   125    1
    30   122   123    1
    31   152   156   am
    32   155   154    1
    33   158   159    2
    34   158   157    1
    35    53    52    1
    36   109   108    2
    37   123   124    2
    38    49    52    1
    39    49    48    1
    40     1     2    1
    41   156   157    1
    42   107   110    1
    43   107   108    1
    44   107   106    1
    45   110   111    1
    46   157   160    1
    47    52    54    1
    48   108   112   am
    49    12    11    1
    50    10    11   ar
    51    10     8   ar
    52   143   142    2
    53    11     9   ar
    54     2     3    1
    55     2     5    1
    56     8     6   ar
    57     9     7   ar
    58   115   114    2
    59     6     7   ar
    60     6     5    1
    61     3     4    2
    62     3    13   am
    63   142   141    1
    64    71    70    1
    65    71    73    1
    66   114   113    1
    67   112   113    1
    68   160   161    1
    69    13    14    1
    70   113   116    1
    71    17    14    1
    72    17    18    1
    73    70    72    1
    74    70    67    1
    75    14    15    1
    76    20    19   ar
    77    21    19   ar
    78    19    18    1
    79   161   163   ar
    80   161   162   ar
    81    66    67    1
    82   141   140    1
    83   141   144    1
    84   163   165   ar
    85   162   164   ar
    86   131   132    1
    87    67    68    1
    88   140   133   am
    89   116   117    1
    90    94    93    2
    91    69    68    2
    92   118   117    1
    93   118   119    1
    94    15    22   am
    95    15    16    2
    96   144   145    1
    97   133   134    2
    98   133   132    1
    99   165   164   ar
   100    29    27   am
   101    68    74   am
   102    22    23    1
   103    92    95    1
   104    92    93    1
   105    92    91    1
   106   132   135    1
   107    93    96   am
   108    28    27    2
   109    47    46    1
   110    27    26    1
   111    25    24    2
   112   119   120    1
   113    42    41    2
   114   135   136    1
   115    41    40    1
   116    74    75    1
   117    23    26    1
   118    23    24    1
   119    45    44    1
   120    45    46    1
   121    96    97    1
   122    44    43    1
   123   136   137    1
   124    24    30   am
   125   103   105   ar
   126   103   101   ar
   127    97    98    1
   128    97   100    1
   129   105   104   ar
   130    77    76    2
   131    98    99    2
   132    75    76    1
   133    75    78    1
   134    76    82   am
   135    40    43    1
   136    40    39    1
   137    33    32    2
   138   101   100    1
   139   101   102   ar
   140    80    79   ar
   141   137   138    1
   142    30    31    1
   143    32    39   am
   144    32    31    1
   145    82    83    1
   146   104   102   ar
   147   138   139    1
   148    31    34    1
   149    83    84    1
   150    83    86    1
   151    85    84    2
   152    78    79    1
   153    79    81   ar
   154    86    87    1
   155    34    35    1
   156    35    36    1
   157    37    36    1
   158    37    38    1
   159    87    88    1
   160    88    89    1
   161    89    90    1
