@<TRIPOS>MOLECULE
tmp/1f28C01.pdb
 221 213 0 0 0
SMALL
GASTEIGER

@<TRIPOS>ATOM
      1  N         -8.5550   -8.6250   70.4430 N.3    24  ARG24      -0.1231
      2  CA        -8.8590   -8.3560   71.8450 C.3    24  ARG24       0.1694
      3  C         -9.5210   -6.9790   71.9720 C.2    24  ARG24       0.2592
      4  O        -10.4300   -6.7890   72.7830 O.2    24  ARG24      -0.2718
      5  CB        -7.5820   -8.4210   72.7020 C.3    24  ARG24       0.0321
      6  CG        -6.7400   -7.1490   72.7220 C.3    24  ARG24       0.0489
      7  CD        -5.6560   -7.2210   73.8030 C.3    24  ARG24       0.2205
      8  NE        -5.0920   -5.9050   74.1190 N.pl3  24  ARG24      -0.0865
      9  CZ        -4.4540   -5.1270   73.2480 C.cat  24  ARG24       0.5346
     10  NH1       -4.2870   -5.5230   71.9940 N.pl3  24  ARG24       0.1354
     11  NH2       -3.9860   -3.9460   73.6300 N.pl3  24  ARG24       0.1354
     12  N         -9.0660   -6.0280   71.1580 N.am   25  THR25      -0.1953
     13  CA        -9.6030   -4.6620   71.1530 C.3    25  THR25       0.1897
     14  C        -11.0420   -4.6430   70.6330 C.2    25  THR25       0.2313
     15  O        -11.7120   -3.6050   70.6700 O.2    25  THR25      -0.2863
     16  CB        -8.7500   -3.7200   70.2410 C.3    25  THR25       0.1794
     17  OG1       -8.8520   -4.1520   68.8730 O.3    25  THR25      -0.2208
     18  CG2       -7.2780   -3.7480   70.6580 C.3    25  THR25       0.0378
     19  N          5.8480   10.5000   62.5100 N.3    56  PHE56      -0.1241
     20  CA         6.2090   11.4440   63.5730 C.3    56  PHE56       0.1605
     21  C          7.5640   11.0230   64.1520 C.2    56  PHE56       0.2264
     22  O          7.6350   10.3330   65.1670 O.2    56  PHE56      -0.2867
     23  CB         5.1260   11.4410   64.6710 C.3    56  PHE56       0.0534
     24  CG         5.3240   12.4890   65.7590 C.ar   56  PHE56      -0.0203
     25  CD1        4.5240   12.4800   66.8920 C.ar   56  PHE56      -0.0042
     26  CD2        6.2890   13.4690   65.6500 C.ar   56  PHE56      -0.0042
     27  CE1        4.6720   13.4160   67.8980 C.ar   56  PHE56      -0.0003
     28  CE2        6.4510   14.4240   66.6590 C.ar   56  PHE56      -0.0003
     29  CZ         5.6410   14.3970   67.7860 C.ar   56  PHE56      -0.0000
     30  N          8.3800   11.9150   67.7690 N.3    59  GLY59      -0.1210
     31  CA         7.7980   11.0000   68.7380 C.3    59  GLY59       0.1956
     32  C          8.6410    9.7390   68.8400 C.2    59  GLY59       0.2611
     33  O          8.7790    9.1560   69.9070 O.2    59  GLY59      -0.2717
     34  N          9.2120    9.3230   67.7210 N.am   60  VAL60      -0.1979
     35  CA        10.0650    8.1440   67.7030 C.3    60  VAL60       0.1595
     36  C         11.2930    8.4170   68.5690 C.2    60  VAL60       0.2287
     37  O         11.6420    7.6290   69.4520 O.2    60  VAL60      -0.2864
     38  CB        10.5610    7.8160   66.2740 C.3    60  VAL60       0.0276
     39  CG1       11.4660    6.5750   66.3210 C.3    60  VAL60       0.0022
     40  CG2        9.3750    7.5960   65.3380 C.3    60  VAL60       0.0022
     41  N         10.3580    8.8250   72.4120 N.3    63  GLU63      -0.1245
     42  CA        10.0260    7.5340   73.0370 C.3    63  GLU63       0.1567
     43  C         11.3240    6.7320   73.2630 C.2    63  GLU63       0.2260
     44  O         11.5380    6.1830   74.3440 O.2    63  GLU63      -0.2867
     45  CB         9.0620    6.7140   72.1780 C.3    63  GLU63       0.0388
     46  CG         8.8370    5.3120   72.7750 C.3    63  GLU63       0.1160
     47  CD         8.0730    4.3620   71.8730 C.2    63  GLU63       0.3649
     48  OE1        8.5250    4.0870   70.7340 O.co2  63  GLU63      -0.2457
     49  OE2        7.0060    3.8650   72.3150 O.co2  63  GLU63      -0.2457
     50  N          3.4680   14.1830   73.3360 N.3    82  ILE82      -0.1231
     51  CA         3.5500   12.9000   72.6250 C.3    82  ILE82       0.1692
     52  C          2.4920   12.0850   73.3460 C.2    82  ILE82       0.2592
     53  O          2.6080   11.8530   74.5500 O.2    82  ILE82      -0.2718
     54  CB         4.9480   12.2810   72.7920 C.3    82  ILE82       0.0266
     55  CG1        5.9710   13.2450   72.1930 C.3    82  ILE82       0.0019
     56  CG2        5.0160   10.8790   72.1190 C.3    82  ILE82       0.0020
     57  CD1        7.3870   12.9230   72.5380 C.3    82  ILE82       0.0001
     58  N          1.4680   11.6620   72.6130 N.am   83  HIS83      -0.1962
     59  CA         0.3400   10.9810   73.2220 C.3    83  HIS83       0.1787
     60  C          0.0450    9.5150   72.9590 C.2    83  HIS83       0.2620
     61  O         -0.9720    9.0270   73.4450 O.2    83  HIS83      -0.2715
     62  CB        -0.9370   11.8010   72.9310 C.3    83  HIS83       0.0785
     63  CG        -0.8710   13.2110   73.4410 C.ar   83  HIS83       0.0821
     64  ND1       -0.5030   14.2740   72.6440 N.ar   83  HIS83      -0.2267
     65  CD2       -1.0590   13.7220   74.6840 C.ar   83  HIS83       0.1154
     66  CE1       -0.4670   15.3770   73.3730 C.ar   83  HIS83       0.1986
     67  NE2       -0.7980   15.0700   74.6150 N.ar   83  HIS83      -0.2212
     68  N          0.9080    8.8000   72.2340 N.am   84  ILE84      -0.1963
     69  CA         0.6330    7.3850   71.9470 C.3    84  ILE84       0.1727
     70  C          0.4490    6.4860   73.1540 C.2    84  ILE84       0.2616
     71  O         -0.1840    5.4430   73.0220 O.2    84  ILE84      -0.2715
     72  CB         1.7450    6.6830   71.1860 C.3    84  ILE84       0.0290
     73  CG1        2.8530    7.6720   70.9060 C.3    84  ILE84       0.0022
     74  CG2        1.1630    5.8900   70.0230 C.3    84  ILE84       0.0023
     75  CD1        3.7070    7.9500   72.1380 C.3    84  ILE84       0.0001
     76  N          1.0280    6.8590   74.2980 N.am   85  TRP85      -0.1974
     77  CA         0.9250    6.0180   75.5000 C.3    85  TRP85       0.1640
     78  C         -0.1450    6.4140   76.5030 C.2    85  TRP85       0.2290
     79  O         -0.3240    5.7290   77.5100 O.2    85  TRP85      -0.2864
     80  CB         2.2610    5.9650   76.2390 C.3    85  TRP85       0.0576
     81  CG         3.2470    5.0020   75.6450 C.ar   85  TRP85       0.0006
     82  CD1        4.3110    5.3020   74.8600 C.ar   85  TRP85       0.0946
     83  CD2        3.2500    3.5800   75.8030 C.ar   85  TRP85       0.0152
     84  NE1        4.9880    4.1550   74.5190 N.ar   85  TRP85      -0.2442
     85  CE2        4.3530    3.0830   75.0870 C.ar   85  TRP85       0.0810
     86  CE3        2.4270    2.6820   76.4820 C.ar   85  TRP85       0.0012
     87  CZ2        4.6560    1.7210   75.0300 C.ar   85  TRP85       0.0191
     88  CZ3        2.7260    1.3250   76.4280 C.ar   85  TRP85       0.0001
     89  CH2        3.8330    0.8570   75.7060 C.ar   85  TRP85       0.0015
     90  N         -3.0810    3.6920   77.0360 N.3    88  ASN88      -0.1240
     91  CA        -2.7290    2.5050   77.7950 C.3    88  ASN88       0.1653
     92  C         -2.3530    2.8370   79.2300 C.2    88  ASN88       0.2266
     93  O         -2.1780    1.9540   80.0600 O.2    88  ASN88      -0.2867
     94  CB        -1.6120    1.7210   77.0930 C.3    88  ASN88       0.1155
     95  CG        -2.1300    0.8850   75.9250 C.2    88  ASN88       0.2627
     96  OD1       -2.1910    1.3380   74.7810 O.2    88  ASN88      -0.2716
     97  ND2       -2.5210   -0.3430   76.2190 N.am   88  ASN88      -0.0877
     98  N          9.2170   -1.9320   78.4260 N.3   111  TYR111     -0.1241
     99  CA        10.4660   -1.7610   77.6930 C.3   111  TYR111      0.1605
    100  C         11.6720   -1.1780   78.4170 C.2   111  TYR111      0.2264
    101  O         12.6070   -1.8860   78.7900 O.2   111  TYR111     -0.2867
    102  CB        10.2290   -0.9110   76.4420 C.3   111  TYR111      0.0534
    103  CG         9.2050   -1.4620   75.4930 C.ar  111  TYR111     -0.0201
    104  CD1        9.5090   -2.5500   74.6610 C.ar  111  TYR111     -0.0009
    105  CD2        7.9330   -0.8740   75.3870 C.ar  111  TYR111     -0.0009
    106  CE1        8.5840   -3.0310   73.7540 C.ar  111  TYR111      0.0417
    107  CE2        6.9870   -1.3510   74.4670 C.ar  111  TYR111      0.0417
    108  CZ         7.3250   -2.4270   73.6570 C.ar  111  TYR111      0.1957
    109  OH         6.4100   -2.8950   72.7370 O.3   111  TYR111     -0.2866
    110  N          0.9650   -2.9970   78.8470 N.3   168  LEU168     -0.1245
    111  CA         0.9480   -3.7050   77.5700 C.3   168  LEU168      0.1561
    112  C          2.2080   -4.5940   77.4460 C.2   168  LEU168      0.2260
    113  O          3.3190   -4.1570   77.7290 O.2   168  LEU168     -0.2867
    114  CB         0.9130   -2.6950   76.4180 C.3   168  LEU168      0.0270
    115  CG         0.1670   -3.0870   75.1430 C.3   168  LEU168      0.0019
    116  CD1        0.3890   -2.0220   74.0540 C.3   168  LEU168      0.0001
    117  CD2        0.6760   -4.4330   74.6530 C.3   168  LEU168      0.0001
    118  N          5.7100   -5.4200   72.2550 N.3   171  CYS171     -0.1221
    119  CA         5.4190   -5.8470   70.8890 C.3   171  CYS171      0.1808
    120  C          6.7800   -6.1650   70.2680 C.2   171  CYS171      0.2601
    121  O          6.9700   -7.2420   69.7290 O.2   171  CYS171     -0.2717
    122  CB         4.7110   -4.7420   70.0970 C.3   171  CYS171      0.0970
    123  SG         3.0220   -4.4290   70.6980 S.3   171  CYS171     -0.0800
    124  N          7.7190   -5.2230   70.3380 N.am  172  HIS172     -0.1975
    125  CA         9.0730   -5.4650   69.8410 C.3   172  HIS172      0.1656
    126  C          9.7760   -6.0940   71.0470 C.2   172  HIS172      0.2291
    127  O         10.2830   -5.3920   71.9280 O.2   172  HIS172     -0.2864
    128  CB         9.7670   -4.1610   69.3610 C.3   172  HIS172      0.0771
    129  CG         9.4870   -2.9370   70.1910 C.ar  172  HIS172      0.0820
    130  ND1       10.4000   -2.4240   71.0890 N.ar  172  HIS172     -0.2267
    131  CD2        8.4410   -2.0680   70.1810 C.ar  172  HIS172      0.1154
    132  CE1        9.9350   -1.2900   71.5900 C.ar  172  HIS172      0.1986
    133  NE2        8.7490   -1.0500   71.0550 N.ar  172  HIS172     -0.2212
    134  N          1.3800   -3.8940   64.2620 N.3   200  ASP200     -0.1239
    135  CA         0.2810   -3.1260   63.7320 C.3   200  ASP200      0.1674
    136  C          0.9580   -2.4920   62.5040 C.2   200  ASP200      0.2266
    137  O          1.6600   -1.4950   62.6300 O.2   200  ASP200     -0.2867
    138  CB        -0.0830   -2.0890   64.8020 C.3   200  ASP200      0.1410
    139  CG        -1.1930   -1.1440   64.3780 C.2   200  ASP200      0.3668
    140  OD1       -1.6670   -0.3820   65.2580 O.co2 200  ASP200     -0.2456
    141  OD2       -1.5760   -1.1500   63.1840 O.co2 200  ASP200     -0.2456
    142  N         -0.0120    1.4760   61.9220 N.3   203  LEU203     -0.1231
    143  CA         0.4570    2.4840   62.8710 C.3   203  LEU203      0.1693
    144  C          1.8580    2.2240   63.4300 C.2   203  LEU203      0.2592
    145  O          2.7940    2.9840   63.1740 O.2   203  LEU203     -0.2718
    146  CB        -0.5470    2.5620   64.0280 C.3   203  LEU203      0.0284
    147  CG        -0.5850    3.7870   64.9460 C.3   203  LEU203      0.0019
    148  CD1       -1.7980    3.6700   65.8870 C.3   203  LEU203      0.0001
    149  CD2        0.7220    3.9140   65.7410 C.3   203  LEU203      0.0001
    150  N          1.9970    1.1360   64.1830 N.am  204  GLY204     -0.1957
    151  CA         3.2620    0.8200   64.8170 C.3   204  GLY204      0.1869
    152  C          4.5130    0.4840   64.0280 C.2   204  GLY204      0.2309
    153  O          5.5730    1.0600   64.2930 O.2   204  GLY204     -0.2863
    154  N          6.8950    3.1670   62.8830 N.3   207  PHE207     -0.1227
    155  CA         7.5630    3.7850   64.0240 C.3   207  PHE207      0.1736
    156  C          8.6400    2.8660   64.5750 C.2   207  PHE207      0.2595
    157  O          9.7640    3.3210   64.8220 O.2   207  PHE207     -0.2718
    158  CB         6.5680    4.2100   65.1210 C.3   207  PHE207      0.0547
    159  CG         5.7670    5.4550   64.7660 C.ar  207  PHE207     -0.0202
    160  CD1        4.7050    5.3910   63.8640 C.ar  207  PHE207     -0.0042
    161  CD2        6.1370    6.7040   65.2510 C.ar  207  PHE207     -0.0042
    162  CE1        4.0220    6.5640   63.4400 C.ar  207  PHE207     -0.0003
    163  CE2        5.4600    7.8800   64.8300 C.ar  207  PHE207     -0.0003
    164  CZ         4.4040    7.7940   63.9220 C.ar  207  PHE207     -0.0000
    165  N          8.3160    1.5820   64.7380 N.am  208  ASN208     -0.1974
    166  CA         9.2900    0.5980   65.2370 C.3   208  ASN208      0.1688
    167  C         10.5160    0.4640   64.3170 C.2   208  ASN208      0.2292
    168  O         11.6430    0.3220   64.7830 O.2   208  ASN208     -0.2864
    169  CB         8.6000   -0.7670   65.4090 C.3   208  ASN208      0.1181
    170  CG         7.4020   -0.7000   66.3660 C.2   208  ASN208      0.2629
    171  OD1        6.3360   -1.2610   66.0940 O.2   208  ASN208     -0.2716
    172  ND2        7.5730    0.0070   67.4830 N.am  208  ASN208     -0.0877
    173  N         -5.2980   -3.4960   61.0290 N.3   240  TYR240     -0.1241
    174  CA        -6.5980   -3.2900   61.6610 C.3   240  TYR240      0.1605
    175  C         -7.5780   -2.8530   60.5810 C.2   240  TYR240      0.2264
    176  O         -7.2420   -2.0370   59.7310 O.2   240  TYR240     -0.2867
    177  CB        -6.5090   -2.2070   62.7330 C.3   240  TYR240      0.0534
    178  CG        -6.0010   -2.6990   64.0650 C.ar  240  TYR240     -0.0201
    179  CD1       -6.8520   -3.3710   64.9510 C.ar  240  TYR240     -0.0009
    180  CD2       -4.6640   -2.5350   64.4250 C.ar  240  TYR240     -0.0009
    181  CE1       -6.3840   -3.8710   66.1610 C.ar  240  TYR240      0.0417
    182  CE2       -4.1810   -3.0350   65.6370 C.ar  240  TYR240      0.0417
    183  CZ        -5.0450   -3.7030   66.4980 C.ar  240  TYR240      0.1957
    184  OH        -4.5730   -4.2200   67.6800 O.3   240  TYR240     -0.2866
    185  N          0.2300   13.6600   55.7940 N.3   288  THR288     -0.1218
    186  CA         0.0650   12.8230   56.9730 C.3   288  THR288      0.1862
    187  C         -1.2900   12.0920   56.8740 C.2   288  THR288      0.2287
    188  O         -2.2800   12.6660   56.4180 O.2   288  THR288     -0.2866
    189  CB         0.1240   13.6950   58.2520 C.3   288  THR288      0.1770
    190  OG1       -0.0070   12.8660   59.4140 O.3   288  THR288     -0.2211
    191  CG2       -0.9900   14.7370   58.2400 C.3   288  THR288      0.0375
    192  N         -4.6710    7.7400   61.4620 N.3   291  MET291     -0.1245
    193  CA        -4.9770    6.3510   61.7800 C.3   291  MET291      0.1570
    194  C         -5.1860    6.2230   63.2860 C.2   291  MET291      0.2261
    195  O         -4.2650    6.4120   64.0860 O.2   291  MET291     -0.2867
    196  CB        -3.8660    5.4180   61.2740 C.3   291  MET291      0.0387
    197  CG        -3.8750    5.3010   59.7520 C.3   291  MET291      0.0595
    198  SD        -2.6340    4.2260   59.0150 S.3   291  MET291     -0.1393
    199  CE        -1.7640    5.3690   58.0430 C.3   291  MET291      0.0692
    200  N         -5.9830    4.7380   67.0620 N.3   293  MET293     -0.1230
    201  CA        -5.3970    3.6570   67.8440 C.3   293  MET293      0.1702
    202  C         -6.5340    2.7900   68.3710 C.2   293  MET293      0.2593
    203  O         -7.6720    3.2480   68.4740 O.2   293  MET293     -0.2718
    204  CB        -4.6100    4.2200   69.0240 C.3   293  MET293      0.0401
    205  CG        -3.9030    3.1660   69.8530 C.3   293  MET293      0.0596
    206  SD        -3.6670    3.7110   71.5470 S.3   293  MET293     -0.1393
    207  CE        -3.0130    5.3680   71.2880 C.3   293  MET293      0.0692
    208  N         -6.2250    1.5390   68.6960 N.am  294  SER294     -0.1938
    209  CA        -7.2180    0.6140   69.2320 C.3   294  SER294      0.2055
    210  C         -6.7650    0.1570   70.6190 C.2   294  SER294      0.2642
    211  O         -6.1690   -0.9090   70.7640 O.2   294  SER294     -0.2714
    212  CB        -7.3780   -0.6020   68.3080 C.3   294  SER294      0.2130
    213  OG        -7.8530   -0.2240   67.0230 O.3   294  SER294     -0.2179
    214  N         -7.0560    0.9790   71.6270 N.am  295  ILE295     -0.1977
    215  CA        -6.6920    0.7260   73.0310 C.3   295  ILE295      0.1596
    216  C         -6.5080   -0.7440   73.4510 C.2   295  ILE295      0.2287
    217  O         -7.2240   -1.6290   72.9290 O.2   295  ILE295     -0.2864
    218  CB        -7.7320    1.3780   73.9770 C.3   295  ILE295      0.0276
    219  CG1       -7.8070    2.8820   73.6900 C.3   295  ILE295      0.0022
    220  CG2       -7.3540    1.1250   75.4330 C.3   295  ILE295      0.0022
    221  CD1       -8.8270    3.6340   74.5190 C.3   295  ILE295      0.0001
@<TRIPOS>BOND
     1   185   186    1
     2   188   187    2
     3   187   186    1
     4   186   189    1
     5   199   198    1
     6   191   189    1
     7   189   190    1
     8   198   197    1
     9   176   175    2
    10   197   196    1
    11   175   174    1
    12   173   174    1
    13   196   193    1
    14   192   193    1
    15   174   177    1
    16   193   194    1
    17   142   143    1
    18   136   137    2
    19   136   135    1
    20    19    20    1
    21   177   178    1
    22   143   144    1
    23   143   146    1
    24   154   155    1
    25   145   144    2
    26   141   139   ar
    27   194   195    2
    28   144   150   am
    29   162   160   ar
    30   162   164   ar
    31    20    21    1
    32    20    23    1
    33   135   134    1
    34   135   138    1
    35   160   159   ar
    36   164   163   ar
    37   155   156    1
    38   155   158    1
    39   146   147    1
    40   152   153    2
    41   152   151    1
    42   178   180   ar
    43   178   179   ar
    44    21    22    2
    45   150   151    1
    46   167   168    2
    47   167   166    1
    48   139   138    1
    49   139   140   ar
    50   180   182   ar
    51   156   165   am
    52   156   157    2
    53    23    24    1
    54   165   166    1
    55   159   158    1
    56   159   161   ar
    57   163   161   ar
    58   147   149    1
    59   147   148    1
    60   179   181   ar
    61   166   169    1
    62    40    38    1
    63   169   170    1
    64   182   183   ar
    65    26    24   ar
    66    26    28   ar
    67    24    25   ar
    68   171   170    2
    69   181   183   ar
    70    38    39    1
    71    38    35    1
    72   170   172   am
    73   183   184    1
    74    28    29   ar
    75    25    27   ar
    76   213   212    1
    77   200   201    1
    78    35    34    1
    79    35    36    1
    80    34    32   am
    81    30    31    1
    82    29    27   ar
    83   201   202    1
    84   201   204    1
    85   212   209    1
    86   202   203    2
    87   202   208   am
    88    36    37    2
    89   208   209    1
    90    31    32    1
    91    32    33    2
    92    17    16    1
    93   204   205    1
    94   209   210    1
    95   128   125    1
    96   128   129    1
    97   121   120    2
    98   125   124    1
    99   125   126    1
   100   205   206    1
   101    74    72    1
   102   122   123    1
   103   122   119    1
   104   131   129   ar
   105   131   133   ar
   106   129   130   ar
   107    16    18    1
   108    16    13    1
   109   120   124   am
   110   120   119    1
   111     1     2    1
   112   210   211    2
   113   210   214   am
   114    14    15    2
   115    14    13    1
   116    48    47   ar
   117   119   118    1
   118    73    72    1
   119    73    75    1
   120   126   127    2
   121   133   132   ar
   122   130   132   ar
   123    13    12    1
   124    12     3   am
   125    72    69    1
   126   207   206    1
   127   214   215    1
   128     2     3    1
   129     2     5    1
   130    47    49   ar
   131    47    46    1
   132    69    68    1
   133    69    70    1
   134     3     4    2
   135    10     9    1
   136    56    54    1
   137    45    46    1
   138    45    42    1
   139    55    57    1
   140    55    54    1
   141    68    60   am
   142    41    42    1
   143    58    59    1
   144    58    52   am
   145    51    54    1
   146    51    50    1
   147    51    52    1
   148    64    66   ar
   149    64    63   ar
   150     5     6    1
   151     6     7    1
   152   109   108    1
   153   217   216    2
   154    62    59    1
   155    62    63    1
   156    60    59    1
   157    60    61    2
   158    71    70    2
   159   215   216    1
   160   215   218    1
   161    42    43    1
   162    70    76   am
   163     9    11    1
   164     9     8    2
   165    43    44    2
   166    52    53    2
   167    66    67   ar
   168    63    65   ar
   169   108   106   ar
   170   108   107   ar
   171   219   218    1
   172   219   221    1
   173   106   104   ar
   174     7     8    1
   175   218   220    1
   176   116   115    1
   177    76    77    1
   178   107   105   ar
   179    84    82   ar
   180    84    85   ar
   181    67    65   ar
   182   117   115    1
   183   104   103   ar
   184    96    95    2
   185    82    81   ar
   186    87    85   ar
   187    87    89   ar
   188    85    83   ar
   189   115   114    1
   190   105   103   ar
   191   103   102    1
   192    77    80    1
   193    77    78    1
   194    81    83   ar
   195    81    80    1
   196    89    88   ar
   197    83    86   ar
   198    95    97   am
   199    95    94    1
   200   114   111    1
   201    88    86   ar
   202   102    99    1
   203    78    79    2
   204    90    91    1
   205    94    91    1
   206   112   111    1
   207   112   113    2
   208   111   110    1
   209    99   100    1
   210    99    98    1
   211    91    92    1
   212   100   101    2
   213    92    93    2
