@<TRIPOS>MOLECULE
tmp/1f28C00.pdb
 159 153 0 0 0
SMALL
GASTEIGER

@<TRIPOS>ATOM
      1  N        -10.1600   -9.7840   67.3610 N.3    23  ASP23      -0.1225
      2  CA        -9.0880   -9.1480   68.1220 C.3    23  ASP23       0.1805
      3  C         -9.5230   -8.8930   69.5660 C.2    23  ASP23       0.2597
      4  O        -10.7200   -8.9330   69.8750 O.2    23  ASP23      -0.2718
      5  CB        -8.6860   -7.8190   67.4770 C.3    23  ASP23       0.1424
      6  CG        -7.3710   -7.2890   68.0180 C.2    23  ASP23       0.3668
      7  OD1       -7.2760   -6.0710   68.2960 O.co2  23  ASP23      -0.2456
      8  OD2       -6.4320   -8.1040   68.1640 O.co2  23  ASP23      -0.2456
      9  N         -8.5550   -8.6250   70.4430 N.am   24  ARG24      -0.1979
     10  CA        -8.8590   -8.3560   71.8450 C.3    24  ARG24       0.1597
     11  C         -9.5210   -6.9790   71.9720 C.2    24  ARG24       0.2287
     12  O        -10.4300   -6.7890   72.7830 O.2    24  ARG24      -0.2864
     13  CB        -7.5820   -8.4210   72.7020 C.3    24  ARG24       0.0334
     14  CG        -6.7400   -7.1490   72.7220 C.3    24  ARG24       0.0492
     15  CD        -5.6560   -7.2210   73.8030 C.3    24  ARG24       0.2205
     16  NE        -5.0920   -5.9050   74.1190 N.pl3  24  ARG24      -0.0865
     17  CZ        -4.4540   -5.1270   73.2480 C.cat  24  ARG24       0.5346
     18  NH1       -4.2870   -5.5230   71.9940 N.pl3  24  ARG24       0.1354
     19  NH2       -3.9860   -3.9460   73.6300 N.pl3  24  ARG24       0.1354
     20  N         10.3580    8.8250   72.4120 N.3    63  GLU63      -0.1245
     21  CA        10.0260    7.5340   73.0370 C.3    63  GLU63       0.1567
     22  C         11.3240    6.7320   73.2630 C.2    63  GLU63       0.2260
     23  O         11.5380    6.1830   74.3440 O.2    63  GLU63      -0.2867
     24  CB         9.0620    6.7140   72.1780 C.3    63  GLU63       0.0388
     25  CG         8.8370    5.3120   72.7750 C.3    63  GLU63       0.1160
     26  CD         8.0730    4.3620   71.8730 C.2    63  GLU63       0.3649
     27  OE1        8.5250    4.0870   70.7340 O.co2  63  GLU63      -0.2457
     28  OE2        7.0060    3.8650   72.3150 O.co2  63  GLU63      -0.2457
     29  N          1.0280    6.8590   74.2980 N.3    85  TRP85      -0.1241
     30  CA         0.9250    6.0180   75.5000 C.3    85  TRP85       0.1605
     31  C         -0.1450    6.4140   76.5030 C.2    85  TRP85       0.2264
     32  O         -0.3240    5.7290   77.5100 O.2    85  TRP85      -0.2867
     33  CB         2.2610    5.9650   76.2390 C.3    85  TRP85       0.0550
     34  CG         3.2470    5.0020   75.6450 C.ar   85  TRP85       0.0003
     35  CD1        4.3110    5.3020   74.8600 C.ar   85  TRP85       0.0946
     36  CD2        3.2500    3.5800   75.8030 C.ar   85  TRP85       0.0152
     37  NE1        4.9880    4.1550   74.5190 N.ar   85  TRP85      -0.2442
     38  CE2        4.3530    3.0830   75.0870 C.ar   85  TRP85       0.0810
     39  CE3        2.4270    2.6820   76.4820 C.ar   85  TRP85       0.0012
     40  CZ2        4.6560    1.7210   75.0300 C.ar   85  TRP85       0.0191
     41  CZ3        2.7260    1.3250   76.4280 C.ar   85  TRP85       0.0001
     42  CH2        3.8330    0.8570   75.7060 C.ar   85  TRP85       0.0015
     43  N          9.2170   -1.9320   78.4260 N.3   111  TYR111     -0.1241
     44  CA        10.4660   -1.7610   77.6930 C.3   111  TYR111      0.1605
     45  C         11.6720   -1.1780   78.4170 C.2   111  TYR111      0.2264
     46  O         12.6070   -1.8860   78.7900 O.2   111  TYR111     -0.2867
     47  CB        10.2290   -0.9110   76.4420 C.3   111  TYR111      0.0534
     48  CG         9.2050   -1.4620   75.4930 C.ar  111  TYR111     -0.0201
     49  CD1        9.5090   -2.5500   74.6610 C.ar  111  TYR111     -0.0009
     50  CD2        7.9330   -0.8740   75.3870 C.ar  111  TYR111     -0.0009
     51  CE1        8.5840   -3.0310   73.7540 C.ar  111  TYR111      0.0417
     52  CE2        6.9870   -1.3510   74.4670 C.ar  111  TYR111      0.0417
     53  CZ         7.3250   -2.4270   73.6570 C.ar  111  TYR111      0.1957
     54  OH         6.4100   -2.8950   72.7370 O.3   111  TYR111     -0.2866
     55  N          0.9650   -2.9970   78.8470 N.3   168  LEU168     -0.1231
     56  CA         0.9480   -3.7050   77.5700 C.3   168  LEU168      0.1678
     57  C          2.2080   -4.5940   77.4460 C.2   168  LEU168      0.2434
     58  O          3.3190   -4.1570   77.7290 O.2   168  LEU168     -0.2733
     59  CB         0.9130   -2.6950   76.4180 C.3   168  LEU168      0.0284
     60  CG         0.1670   -3.0870   75.1430 C.3   168  LEU168      0.0019
     61  CD1        0.3890   -2.0220   74.0540 C.3   168  LEU168      0.0001
     62  CD2        0.6760   -4.4330   74.6530 C.3   168  LEU168      0.0001
     63  N          2.0460   -5.8590   77.0570 N.am  169  PRO169     -0.2729
     64  CA         3.2520   -6.6970   76.9300 C.3   169  PRO169      0.1401
     65  C          4.0130   -6.1860   75.7120 C.2   169  PRO169      0.2269
     66  O          3.3930   -5.7460   74.7440 O.2   169  PRO169     -0.2865
     67  CB         2.6770   -8.0990   76.7280 C.3   169  PRO169      0.0296
     68  CG         1.3700   -8.0210   77.4950 C.3   169  PRO169      0.0237
     69  CD         0.8300   -6.6830   77.0380 C.3   169  PRO169      0.0939
     70  N          5.7100   -5.4200   72.2550 N.3   171  CYS171     -0.1221
     71  CA         5.4190   -5.8470   70.8890 C.3   171  CYS171      0.1808
     72  C          6.7800   -6.1650   70.2680 C.2   171  CYS171      0.2601
     73  O          6.9700   -7.2420   69.7290 O.2   171  CYS171     -0.2717
     74  CB         4.7110   -4.7420   70.0970 C.3   171  CYS171      0.0970
     75  SG         3.0220   -4.4290   70.6980 S.3   171  CYS171     -0.0800
     76  N          7.7190   -5.2230   70.3380 N.am  172  HIS172     -0.1975
     77  CA         9.0730   -5.4650   69.8410 C.3   172  HIS172      0.1656
     78  C          9.7760   -6.0940   71.0470 C.2   172  HIS172      0.2291
     79  O         10.2830   -5.3920   71.9280 O.2   172  HIS172     -0.2864
     80  CB         9.7670   -4.1610   69.3610 C.3   172  HIS172      0.0771
     81  CG         9.4870   -2.9370   70.1910 C.ar  172  HIS172      0.0820
     82  ND1       10.4000   -2.4240   71.0890 N.ar  172  HIS172     -0.2267
     83  CD2        8.4410   -2.0680   70.1810 C.ar  172  HIS172      0.1154
     84  CE1        9.9350   -1.2900   71.5900 C.ar  172  HIS172      0.1986
     85  NE2        8.7490   -1.0500   71.0550 N.ar  172  HIS172     -0.2212
     86  N          9.5280   -8.8810   66.3480 N.3   196  GLN196     -0.1231
     87  CA         8.3280   -8.2260   66.8680 C.3   196  GLN196      0.1698
     88  C          7.2030   -9.2560   66.8430 C.2   196  GLN196      0.2592
     89  O          6.8300   -9.7100   65.7680 O.2   196  GLN196     -0.2718
     90  CB         7.9550   -7.0220   66.0050 C.3   196  GLN196      0.0381
     91  CG         7.0640   -6.0550   66.7640 C.3   196  GLN196      0.0905
     92  CD         6.8000   -4.7470   66.0350 C.2   196  GLN196      0.2608
     93  OE1        7.6830   -4.1970   65.3490 O.2   196  GLN196     -0.2717
     94  NE2        5.5770   -4.2280   66.1940 N.am  196  GLN196     -0.0878
     95  N          6.6810   -9.6380   68.0130 N.am  197  ARG197     -0.1966
     96  CA         5.6100  -10.6600   68.0880 C.3   197  ARG197      0.1729
     97  C          4.2660  -10.2440   67.4910 C.2   197  ARG197      0.2616
     98  O          3.5020  -11.0960   67.0300 O.2   197  ARG197     -0.2715
     99  CB         5.3610  -11.1080   69.5390 C.3   197  ARG197      0.0348
    100  CG         4.6760  -10.0740   70.3700 C.3   197  ARG197      0.0492
    101  CD         4.3290  -10.5310   71.8060 C.3   197  ARG197      0.2205
    102  NE         3.7650   -9.3670   72.4560 N.pl3 197  ARG197     -0.0865
    103  CZ         2.5200   -8.9300   72.2830 C.cat 197  ARG197      0.5346
    104  NH1        1.6870   -9.5960   71.5110 N.pl3 197  ARG197      0.1354
    105  NH2        2.1500   -7.7460   72.7660 N.pl3 197  ARG197      0.1354
    106  N          3.9450   -8.9560   67.5450 N.am  198  SER198     -0.1950
    107  CA         2.6860   -8.4560   66.9670 C.3   198  SER198      0.1924
    108  C          2.9650   -7.0650   66.4220 C.2   198  SER198      0.2314
    109  O          3.4500   -6.1720   67.1300 O.2   198  SER198     -0.2863
    110  CB         1.5300   -8.4270   67.9860 C.3   198  SER198      0.2116
    111  OG         1.9930   -8.1680   69.2820 O.3   198  SER198     -0.2180
    112  N          1.3800   -3.8940   64.2620 N.3   200  ASP200     -0.1239
    113  CA         0.2810   -3.1260   63.7320 C.3   200  ASP200      0.1674
    114  C          0.9580   -2.4920   62.5040 C.2   200  ASP200      0.2266
    115  O          1.6600   -1.4950   62.6300 O.2   200  ASP200     -0.2867
    116  CB        -0.0830   -2.0890   64.8020 C.3   200  ASP200      0.1410
    117  CG        -1.1930   -1.1440   64.3780 C.2   200  ASP200      0.3668
    118  OD1       -1.6670   -0.3820   65.2580 O.co2 200  ASP200     -0.2456
    119  OD2       -1.5760   -1.1500   63.1840 O.co2 200  ASP200     -0.2456
    120  N          1.9970    1.1360   64.1830 N.3   204  GLY204     -0.1225
    121  CA         3.2620    0.8200   64.8170 C.3   204  GLY204      0.1811
    122  C          4.5130    0.4840   64.0280 C.2   204  GLY204      0.2280
    123  O          5.5730    1.0600   64.2930 O.2   204  GLY204     -0.2866
    124  N          8.3160    1.5820   64.7380 N.3   208  ASN208     -0.1240
    125  CA         9.2900    0.5980   65.2370 C.3   208  ASN208      0.1653
    126  C         10.5160    0.4640   64.3170 C.2   208  ASN208      0.2266
    127  O         11.6430    0.3220   64.7830 O.2   208  ASN208     -0.2867
    128  CB         8.6000   -0.7670   65.4090 C.3   208  ASN208      0.1155
    129  CG         7.4020   -0.7000   66.3660 C.2   208  ASN208      0.2627
    130  OD1        6.3360   -1.2610   66.0940 O.2   208  ASN208     -0.2716
    131  ND2        7.5730    0.0070   67.4830 N.am  208  ASN208     -0.0877
    132  N         -0.2100   -7.9520   61.3170 N.3   238  HIS238     -0.1241
    133  CA        -1.5760   -7.5790   60.9800 C.3   238  HIS238      0.1621
    134  C         -1.8840   -6.1440   60.5980 C.2   238  HIS238      0.2264
    135  O         -1.0810   -5.2190   60.7820 O.2   238  HIS238     -0.2867
    136  CB        -2.5060   -7.9230   62.1470 C.3   238  HIS238      0.0745
    137  CG        -2.0670   -7.3580   63.4690 C.ar  238  HIS238      0.0817
    138  ND1       -1.1530   -7.9940   64.2840 N.ar  238  HIS238     -0.2268
    139  CD2       -2.4250   -6.2240   64.1220 C.ar  238  HIS238      0.1154
    140  CE1       -0.9710   -7.2770   65.3830 C.ar  238  HIS238      0.1986
    141  NE2       -1.7300   -6.1970   65.3090 N.ar  238  HIS238     -0.2212
    142  N         -5.2980   -3.4960   61.0290 N.3   240  TYR240     -0.1241
    143  CA        -6.5980   -3.2900   61.6610 C.3   240  TYR240      0.1605
    144  C         -7.5780   -2.8530   60.5810 C.2   240  TYR240      0.2264
    145  O         -7.2420   -2.0370   59.7310 O.2   240  TYR240     -0.2867
    146  CB        -6.5090   -2.2070   62.7330 C.3   240  TYR240      0.0534
    147  CG        -6.0010   -2.6990   64.0650 C.ar  240  TYR240     -0.0201
    148  CD1       -6.8520   -3.3710   64.9510 C.ar  240  TYR240     -0.0009
    149  CD2       -4.6640   -2.5350   64.4250 C.ar  240  TYR240     -0.0009
    150  CE1       -6.3840   -3.8710   66.1610 C.ar  240  TYR240      0.0417
    151  CE2       -4.1810   -3.0350   65.6370 C.ar  240  TYR240      0.0417
    152  CZ        -5.0450   -3.7030   66.4980 C.ar  240  TYR240      0.1957
    153  OH        -4.5730   -4.2200   67.6800 O.3   240  TYR240     -0.2866
    154  N         -6.2250    1.5390   68.6960 N.3   294  SER294     -0.1217
    155  CA        -7.2180    0.6140   69.2320 C.3   294  SER294      0.1889
    156  C         -6.7650    0.1570   70.6190 C.2   294  SER294      0.2288
    157  O         -6.1690   -0.9090   70.7640 O.2   294  SER294     -0.2866
    158  CB        -7.3780   -0.6020   68.3080 C.3   294  SER294      0.2089
    159  OG        -7.8530   -0.2240   67.0230 O.3   294  SER294     -0.2183
@<TRIPOS>BOND
     1   145   144    2
     2   144   143    1
     3   134   135    2
     4   134   133    1
     5   133   132    1
     6   133   136    1
     7   142   143    1
     8   143   146    1
     9   136   137    1
    10   114   115    2
    11   114   113    1
    12   146   147    1
    13   119   117   ar
    14   137   139   ar
    15   137   138   ar
    16   113   112    1
    17   113   116    1
    18   122   123    2
    19   122   121    1
    20   147   149   ar
    21   147   148   ar
    22   139   141   ar
    23   120   121    1
    24   138   140   ar
    25   126   127    2
    26   126   125    1
    27   117   116    1
    28   117   118   ar
    29   149   151   ar
    30   124   125    1
    31   148   150   ar
    32   125   128    1
    33   141   140   ar
    34    93    92    2
    35   128   129    1
    36   151   152   ar
    37    89    88    2
    38    90    91    1
    39    90    87    1
    40    92    94   am
    41    92    91    1
    42   130   129    2
    43   150   152   ar
    44    86    87    1
    45   129   131   am
    46   108   107    1
    47   108   109    2
    48   152   153    1
    49    88    87    1
    50    88    95   am
    51   107   106    1
    52   107   110    1
    53   159   158    1
    54    98    97    2
    55     1     2    1
    56     5     6    1
    57     5     2    1
    58    97   106   am
    59    97    96    1
    60   110   111    1
    61    95    96    1
    62     6     8   ar
    63     6     7   ar
    64    96    99    1
    65     2     3    1
    66   158   155    1
    67   154   155    1
    68   155   156    1
    69    80    77    1
    70    80    81    1
    71    99   100    1
    72     3     4    2
    73     3     9   am
    74    73    72    2
    75    77    76    1
    76    77    78    1
    77    74    75    1
    78    74    71    1
    79    83    81   ar
    80    83    85   ar
    81    81    82   ar
    82    72    76   am
    83    72    71    1
    84   100   101    1
    85     9    10    1
    86   156   157    2
    87    27    26   ar
    88    71    70    1
    89    78    79    2
    90    85    84   ar
    91    82    84   ar
    92   104   103    1
    93   101   102    1
    94    10    11    1
    95    10    13    1
    96    26    28   ar
    97    26    25    1
    98    11    12    2
    99    18    17    1
   100    24    25    1
   101    24    21    1
   102   103   102    2
   103   103   105    1
   104    20    21    1
   105    13    14    1
   106    14    15    1
   107    54    53    1
   108    21    22    1
   109    17    19    1
   110    17    16    2
   111    22    23    2
   112    53    51   ar
   113    53    52   ar
   114    51    49   ar
   115    15    16    1
   116    61    60    1
   117    29    30    1
   118    52    50   ar
   119    37    35   ar
   120    37    38   ar
   121    62    60    1
   122    49    48   ar
   123    66    65    2
   124    35    34   ar
   125    40    38   ar
   126    40    42   ar
   127    38    36   ar
   128    60    59    1
   129    50    48   ar
   130    48    47    1
   131    30    33    1
   132    30    31    1
   133    34    36   ar
   134    34    33    1
   135    42    41   ar
   136    65    64    1
   137    36    39   ar
   138    59    56    1
   139    41    39   ar
   140    47    44    1
   141    31    32    2
   142    67    64    1
   143    67    68    1
   144    64    63    1
   145    69    63    1
   146    69    68    1
   147    63    57   am
   148    57    56    1
   149    57    58    2
   150    56    55    1
   151    44    45    1
   152    44    43    1
   153    45    46    2
