@<TRIPOS>MOLECULE
tmp/1f29A00.pdb
 166 161 0 0 0
SMALL
GASTEIGER

@<TRIPOS>ATOM
      1  N          3.9440   -8.5910   17.7860 N.3    19  GLN19      -0.1245
      2  CA         3.1640   -9.4400   16.8880 C.3    19  GLN19       0.1566
      3  C          3.1040  -10.8930   17.3500 C.2    19  GLN19       0.2260
      4  O          2.2680  -11.6650   16.8790 O.2    19  GLN19      -0.2867
      5  CB         3.6910   -9.3600   15.4510 C.3    19  GLN19       0.0367
      6  CG         5.0510   -9.9750   15.2220 C.3    19  GLN19       0.0905
      7  CD         5.5200   -9.7900   13.7950 C.2    19  GLN19       0.2608
      8  OE1        5.9250   -8.7010   13.4030 O.2    19  GLN19      -0.2717
      9  NE2        5.4540  -10.8530   13.0050 N.am   19  GLN19      -0.0878
     10  N          2.6870  -14.7710   15.3870 N.3    22  CYS22      -0.1221
     11  CA         1.8870  -14.6100   14.1830 C.3    22  CYS22       0.1808
     12  C          2.6990  -13.8180   13.1530 C.2    22  CYS22       0.2601
     13  O          3.3480  -12.8310   13.5000 O.2    22  CYS22      -0.2717
     14  CB         0.5890  -13.8880   14.5470 C.3    22  CYS22       0.0970
     15  SG        -0.5410  -13.4780   13.1840 S.3    22  CYS22      -0.0800
     16  N          2.7130  -14.2870   11.9050 N.am   23  GLY23      -0.1957
     17  CA         3.4450  -13.5940   10.8520 C.3    23  GLY23       0.1869
     18  C          2.6400  -12.4280   10.3070 C.2    23  GLY23       0.2309
     19  O          2.4280  -12.3180    9.1010 O.2    23  GLY23      -0.2863
     20  N          3.4530   -9.0960   10.4460 N.3    25  CYS25      -0.1221
     21  CA         4.2830   -7.9030   10.2890 C.3    25  CYS25       0.1808
     22  C          3.6980   -6.8970    9.2990 C.2    25  CYS25       0.2601
     23  O          3.8360   -5.6910    9.4790 O.2    25  CYS25      -0.2717
     24  CB         5.6810   -8.3090    9.8310 C.3    25  CYS25       0.0970
     25  SG         5.6920   -9.2770    8.2850 S.3    25  CYS25      -0.0800
     26  N          3.0520   -7.4070    8.2520 N.am   26  TRP26      -0.1976
     27  CA         2.4390   -6.5690    7.2200 C.3    26  TRP26       0.1640
     28  C          1.3280   -5.6980    7.8080 C.2    26  TRP26       0.2290
     29  O          1.1180   -4.5650    7.3750 O.2    26  TRP26      -0.2864
     30  CB         1.8780   -7.4440    6.0870 C.3    26  TRP26       0.0576
     31  CG         0.8600   -8.4590    6.5590 C.ar   26  TRP26       0.0006
     32  CD1        1.1180   -9.6740    7.1360 C.ar   26  TRP26       0.0946
     33  CD2       -0.5700   -8.3200    6.5440 C.ar   26  TRP26       0.0152
     34  NE1       -0.0620  -10.2900    7.4870 N.ar   26  TRP26      -0.2442
     35  CE2       -1.1120   -9.4830    7.1380 C.ar   26  TRP26       0.0810
     36  CE3       -1.4420   -7.3190    6.0950 C.ar   26  TRP26       0.0012
     37  CZ2       -2.4880   -9.6730    7.2940 C.ar   26  TRP26       0.0191
     38  CZ3       -2.8100   -7.5090    6.2510 C.ar   26  TRP26       0.0001
     39  CH2       -3.3190   -8.6770    6.8480 C.ar   26  TRP26       0.0015
     40  N         -5.5070  -10.8350    2.0720 N.3    60  ASP60      -0.1225
     41  CA        -4.2130  -11.1780    2.6560 C.3    60  ASP60       0.1805
     42  C         -4.3420  -12.4820    3.4420 C.2    60  ASP60       0.2598
     43  O         -5.4530  -12.9750    3.6410 O.2    60  ASP60      -0.2718
     44  CB        -3.6820  -10.0330    3.5130 C.3    60  ASP60       0.1424
     45  CG        -3.1710   -8.8760    2.6710 C.2    60  ASP60       0.3668
     46  OD1       -2.2610   -9.0940    1.8490 O.co2  60  ASP60      -0.2456
     47  OD2       -3.6850   -7.7510    2.8020 O.co2  60  ASP60      -0.2456
     48  N         -3.2210  -13.0190    3.9160 N.am   61  SER61      -0.1952
     49  CA        -3.2270  -14.3090    4.6050 C.3    61  SER61       0.1924
     50  C         -2.9810  -14.3790    6.1100 C.2    61  SER61       0.2314
     51  O         -2.3740  -15.3360    6.5910 O.2    61  SER61      -0.2863
     52  CB        -2.2620  -15.2520    3.8900 C.3    61  SER61       0.2116
     53  OG        -2.5830  -15.3360    2.5100 O.3    61  SER61      -0.2180
     54  N         -1.7900  -14.7000    9.6530 N.3    63  CYS63      -0.1221
     55  CA        -0.5110  -15.0580   10.2580 C.3    63  CYS63       0.1808
     56  C          0.4540  -15.6960    9.2700 C.2    63  CYS63       0.2602
     57  O          1.5910  -16.0010    9.6250 O.2    63  CYS63      -0.2717
     58  CB        -0.7140  -15.9700   11.4680 C.3    63  CYS63       0.0970
     59  SG        -1.5960  -15.1790   12.8490 S.3    63  CYS63      -0.0800
     60  N         -0.0120  -15.9160    8.0410 N.am   64  SER64      -0.1938
     61  CA         0.8240  -16.4890    6.9890 C.3    64  SER64       0.2055
     62  C          1.3950  -15.3970    6.0830 C.2    64  SER64       0.2644
     63  O          2.0410  -15.6920    5.0780 O.2    64  SER64      -0.2714
     64  CB         0.0450  -17.5130    6.1570 C.3    64  SER64       0.2130
     65  OG        -0.1690  -18.7080    6.8860 O.3    64  SER64      -0.2179
     66  N          1.1360  -14.1360    6.4250 N.am   65  GLY65      -0.1939
     67  CA         1.6710  -13.0400    5.6370 C.3    65  GLY65       0.2014
     68  C          0.6730  -12.2360    4.8320 C.2    65  GLY65       0.2639
     69  O         -0.4890  -12.6090    4.6970 O.2    65  GLY65      -0.2714
     70  N          1.1530  -11.1300    4.2760 N.am   66  GLY66      -0.1939
     71  CA         0.3120  -10.2600    3.4810 C.3    66  GLY66       0.2014
     72  C          1.1200   -9.1010    2.9350 C.2    66  GLY66       0.2639
     73  O          2.3320   -9.0350    3.1340 O.2    66  GLY66      -0.2714
     74  N          0.4380   -8.1630    2.2880 N.am   67  LEU67      -0.1963
     75  CA         1.0750   -6.9960    1.6920 C.3    67  LEU67       0.1728
     76  C          0.4330   -5.7260    2.2380 C.2    67  LEU67       0.2616
     77  O         -0.7980   -5.6410    2.3280 O.2    67  LEU67      -0.2715
     78  CB         0.9000   -7.0360    0.1690 C.3    67  LEU67       0.0311
     79  CG         1.4220   -8.2830   -0.5520 C.3    67  LEU67       0.0022
     80  CD1        0.9170   -8.3160   -1.9850 C.3    67  LEU67       0.0001
     81  CD2        2.9490   -8.2980   -0.5100 C.3    67  LEU67       0.0001
     82  N          1.2610   -4.7440    2.6000 N.am   68  MET68      -0.1977
     83  CA         0.7500   -3.4770    3.1260 C.3    68  MET68       0.1605
     84  C         -0.1830   -2.8020    2.1340 C.2    68  MET68       0.2287
     85  O         -1.2080   -2.2520    2.5290 O.2    68  MET68      -0.2864
     86  CB         1.8830   -2.5180    3.5070 C.3    68  MET68       0.0413
     87  CG         2.6790   -2.9470    4.7260 C.3    68  MET68       0.0598
     88  SD         3.8020   -4.3280    4.3950 S.3    68  MET68      -0.1393
     89  CE         5.2530   -3.4160    3.8180 C.3    68  MET68       0.0692
     90  N          8.9140   -2.5060    3.0590 N.3   138  ALA138     -0.1245
     91  CA         9.1990   -3.9300    3.1690 C.3   138  ALA138      0.1562
     92  C         10.7190   -4.0500    3.1170 C.2   138  ALA138      0.2260
     93  O         11.3830   -3.2690    2.4310 O.2   138  ALA138     -0.2867
     94  CB         8.5750   -4.6850    2.0060 C.3   138  ALA138      0.0290
     95  N         14.6260   -8.9790    6.3400 N.3   141  ALA141     -0.1231
     96  CA        14.9850   -8.9880    7.7480 C.3   141  ALA141      0.1694
     97  C         15.6380  -10.2800    8.2120 C.2   141  ALA141      0.2592
     98  O         15.6180  -10.5940    9.4020 O.2   141  ALA141     -0.2718
     99  CB        13.7620   -8.6870    8.5930 C.3   141  ALA141      0.0304
    100  N         16.2420  -11.0140    7.2810 N.am  142  SER142     -0.1952
    101  CA        16.8940  -12.2740    7.6240 C.3   142  SER142      0.1924
    102  C         18.1000  -12.0800    8.5450 C.2   142  SER142      0.2314
    103  O         18.4340  -12.9670    9.3280 O.2   142  SER142     -0.2863
    104  CB        17.2870  -13.0470    6.3570 C.3   142  SER142      0.2116
    105  OG        18.2060  -12.3290    5.5530 O.3   142  SER142     -0.2180
    106  N         17.5450  -11.0100   13.1800 N.3   145  MET145     -0.1245
    107  CA        17.4130  -11.8240   14.3820 C.3   145  MET145      0.1570
    108  C         18.5460  -11.6210   15.3850 C.2   145  MET145      0.2261
    109  O         18.3180  -11.6440   16.5940 O.2   145  MET145     -0.2867
    110  CB        17.2910  -13.3010   14.0080 C.3   145  MET145      0.0387
    111  CG        15.9730  -13.6410   13.3240 C.3   145  MET145      0.0595
    112  SD        14.5550  -13.1960   14.3640 S.3   145  MET145     -0.1393
    113  CE        13.1810  -13.6040   13.2810 C.3   145  MET145      0.0692
    114  N         12.6820   -9.7640    0.0890 N.3   160  LEU160     -0.1231
    115  CA        11.7440   -9.0830    0.9800 C.3   160  LEU160      0.1693
    116  C         10.9060  -10.1220    1.7080 C.2   160  LEU160      0.2592
    117  O         10.3060  -10.9880    1.0740 O.2   160  LEU160     -0.2718
    118  CB        10.8120   -8.1760    0.1740 C.3   160  LEU160      0.0284
    119  CG        11.4370   -7.0660   -0.6720 C.3   160  LEU160      0.0019
    120  CD1       10.3510   -6.3800   -1.4850 C.3   160  LEU160      0.0001
    121  CD2       12.1560   -6.0670    0.2190 C.3   160  LEU160      0.0001
    122  N         10.8340  -10.0130    3.0320 N.am  161  ASP161     -0.1960
    123  CA        10.0700  -10.9680    3.8310 C.3   161  ASP161      0.1840
    124  C          9.4950  -10.3670    5.1100 C.2   161  ASP161      0.2622
    125  O          8.9350  -11.0860    5.9390 O.2   161  ASP161     -0.2715
    126  CB        10.9690  -12.1620    4.2010 C.3   161  ASP161      0.1450
    127  CG        12.1380  -11.7790    5.1250 C.2   161  ASP161      0.3671
    128  OD1       12.8450  -12.7030    5.5850 O.co2 161  ASP161     -0.2456
    129  OD2       12.3610  -10.5760    5.3970 O.co2 161  ASP161     -0.2456
    130  N          9.5900   -9.0480    5.2450 N.am  162  HIS162     -0.1959
    131  CA         9.1350   -8.3800    6.4560 C.3   162  HIS162      0.1787
    132  C          8.6320   -6.9590    6.1950 C.2   162  HIS162      0.2620
    133  O          9.1640   -6.2520    5.3410 O.2   162  HIS162     -0.2715
    134  CB        10.3120   -8.3570    7.4350 C.3   162  HIS162      0.0785
    135  CG         9.9840   -7.8150    8.7880 C.ar  162  HIS162      0.0821
    136  ND1        8.8540   -8.1760    9.4860 N.ar  162  HIS162     -0.2267
    137  CD2       10.6740   -6.9780    9.5980 C.ar  162  HIS162      0.1154
    138  CE1        8.8600   -7.5890   10.6690 C.ar  162  HIS162      0.1986
    139  NE2        9.9540   -6.8560   10.7620 N.ar  162  HIS162     -0.2212
    140  N          7.5960   -6.5560    6.9290 N.am  163  GLY163     -0.1954
    141  CA         7.0500   -5.2180    6.7830 C.3   163  GLY163      0.1869
    142  C          7.3110   -4.3900    8.0280 C.2   163  GLY163      0.2309
    143  O          7.0070   -4.8340    9.1360 O.2   163  GLY163     -0.2863
    144  N          8.5430   -6.3820   17.2870 N.3   184  TRP184     -0.1241
    145  CA         8.9820   -7.5370   18.0730 C.3   184  TRP184      0.1605
    146  C          9.2750   -7.1540   19.5290 C.2   184  TRP184      0.2264
    147  O         10.2300   -7.6610   20.1180 O.2   184  TRP184     -0.2867
    148  CB        10.2540   -8.1290   17.4460 C.3   184  TRP184      0.0550
    149  CG        10.1070   -8.5960   16.0190 C.ar  184  TRP184      0.0003
    150  CD1        8.9410   -8.8260   15.3410 C.ar  184  TRP184      0.0946
    151  CD2       11.1670   -8.9100   15.1040 C.ar  184  TRP184      0.0152
    152  NE1        9.2120   -9.2600   14.0660 N.ar  184  TRP184     -0.2442
    153  CE2       10.5680   -9.3230   13.8920 C.ar  184  TRP184      0.0810
    154  CE3       12.5690   -8.8840   15.1940 C.ar  184  TRP184      0.0012
    155  CZ2       11.3200   -9.7080   12.7740 C.ar  184  TRP184      0.0191
    156  CZ3       13.3170   -9.2660   14.0800 C.ar  184  TRP184      0.0001
    157  CH2       12.6880   -9.6730   12.8860 C.ar  184  TRP184      0.0015
    158  N          9.8730   -1.3940   -1.7720 N.3   208  GLU208     -0.1245
    159  CA         8.4170   -1.3860   -1.6250 C.3   208  GLU208      0.1567
    160  C          7.9060   -0.4150   -0.5570 C.2   208  GLU208      0.2260
    161  O          7.3980   -0.8320    0.4850 O.2   208  GLU208     -0.2867
    162  CB         7.9450   -2.8090   -1.3090 C.3   208  GLU208      0.0388
    163  CG         6.4470   -3.0210   -1.4110 C.3   208  GLU208      0.1160
    164  CD         6.0300   -3.7290   -2.6880 C.2   208  GLU208      0.3649
    165  OE1        6.7380   -3.6070   -3.7160 O.co2 208  GLU208     -0.2457
    166  OE2        4.9850   -4.4150   -2.6580 O.co2 208  GLU208     -0.2457
@<TRIPOS>BOND
     1   165   164   ar
     2   164   166   ar
     3   164   163    1
     4    80    79    1
     5   158   159    1
     6   159   162    1
     7   159   160    1
     8   120   119    1
     9   163   162    1
    10   119   118    1
    11   119   121    1
    12   160   161    2
    13    79    81    1
    14    79    78    1
    15   114   115    1
    16    78    75    1
    17   118   115    1
    18   115   116    1
    19   117   116    2
    20    75    76    1
    21    75    74    1
    22   116   122   am
    23    46    45   ar
    24    94    91    1
    25    40    41    1
    26    84    85    2
    27    84    83    1
    28    76    77    2
    29    76    82   am
    30    74    72   am
    31    93    92    2
    32    53    52    1
    33    82    83    1
    34    41    42    1
    35    41    44    1
    36    45    47   ar
    37    45    44    1
    38    72    73    2
    39    72    71    1
    40   122   123    1
    41    90    91    1
    42    92    91    1
    43    83    86    1
    44    42    43    2
    45    42    48   am
    46    71    70    1
    47    86    87    1
    48    89    88    1
    49   123   126    1
    50   123   124    1
    51    52    49    1
    52    48    49    1
    53   126   127    1
    54    70    68   am
    55    88    87    1
    56    49    50    1
    57    69    68    2
    58    68    67    1
    59    63    62    2
    60   124   130   am
    61   124   125    2
    62   127   129   ar
    63   127   128   ar
    64   130   131    1
    65   133   132    2
    66   105   104    1
    67    67    66    1
    68    62    66   am
    69    62    61    1
    70    30    31    1
    71    30    27    1
    72    36    38   ar
    73    36    33   ar
    74    50    51    2
    75    64    65    1
    76    64    61    1
    77   132   131    1
    78   132   140   am
    79    38    39   ar
    80    95    96    1
    81   104   101    1
    82   131   134    1
    83    33    31   ar
    84    33    35   ar
    85    31    32   ar
    86   141   140    1
    87   141   142    1
    88    39    37   ar
    89    61    60    1
    90    32    34   ar
    91    35    37   ar
    92    35    34   ar
    93    27    28    1
    94    27    26    1
    95   100   101    1
    96   100    97   am
    97    29    28    2
    98   134   135    1
    99   101   102    1
   100    96    97    1
   101    96    99    1
   102   142   143    2
   103    60    56   am
   104    97    98    2
   105    26    22   am
   106    25    24    1
   107   102   103    2
   108   135   136   ar
   109   135   137   ar
   110    19    18    2
   111    56    57    2
   112    56    55    1
   113    22    23    2
   114    22    21    1
   115   136   138   ar
   116   137   139   ar
   117    54    55    1
   118    24    21    1
   119    55    58    1
   120    21    20    1
   121    18    17    1
   122   138   139   ar
   123    17    16    1
   124    58    59    1
   125    16    12   am
   126   155   157   ar
   127   155   153   ar
   128    59    15    1
   129   157   156   ar
   130     9     7   am
   131    12    13    2
   132    12    11    1
   133   106   107    1
   134    15    14    1
   135   113   112    1
   136   111   110    1
   137   111   112    1
   138     8     7    2
   139     7     6    1
   140   153   152   ar
   141   153   151   ar
   142   110   107    1
   143   152   150   ar
   144   156   154   ar
   145    11    14    1
   146    11    10    1
   147   107   108    1
   148   151   154   ar
   149   151   149   ar
   150     6     5    1
   151   150   149   ar
   152   108   109    2
   153     5     2    1
   154   149   148    1
   155     4     3    2
   156     2     3    1
   157     2     1    1
   158   144   145    1
   159   148   145    1
   160   145   146    1
   161   146   147    2
