@<TRIPOS>MOLECULE
tmp/1f2aA00.pdb
 167 162 0 0 0
SMALL
GASTEIGER

@<TRIPOS>ATOM
      1  N          3.7760   -8.3700   18.4770 N.3    19  GLN19      -0.1245
      2  CA         3.0290   -9.2440   17.5820 C.3    19  GLN19       0.1566
      3  C          2.9700  -10.6850   18.0920 C.2    19  GLN19       0.2260
      4  O          2.1470  -11.4770   17.6390 O.2    19  GLN19      -0.2867
      5  CB         3.5860   -9.1870   16.1510 C.3    19  GLN19       0.0367
      6  CG         4.9620   -9.7690   15.9610 C.3    19  GLN19       0.0905
      7  CD         5.4180   -9.7060   14.5130 C.2    19  GLN19       0.2608
      8  OE1        5.7490   -8.6350   14.0010 O.2    19  GLN19      -0.2717
      9  NE2        5.4500  -10.8580   13.8500 N.am   19  GLN19      -0.0878
     10  N          2.5880  -14.5780   16.2450 N.3    22  CYS22      -0.1221
     11  CA         1.8280  -14.4300   15.0120 C.3    22  CYS22       0.1808
     12  C          2.6320  -13.6670   13.9480 C.2    22  CYS22       0.2601
     13  O          3.2740  -12.6610   14.2550 O.2    22  CYS22      -0.2717
     14  CB         0.5140  -13.7150   15.3400 C.3    22  CYS22       0.0970
     15  SG        -0.5990  -13.3620   13.9460 S.3    22  CYS22      -0.0800
     16  N          2.6260  -14.1680   12.7120 N.am   23  GLY23      -0.1957
     17  CA         3.3480  -13.5080   11.6300 C.3    23  GLY23       0.1869
     18  C          2.5440  -12.3510   11.0580 C.2    23  GLY23       0.2309
     19  O          2.3690  -12.2360    9.8430 O.2    23  GLY23      -0.2863
     20  N          3.3020   -9.1100   11.1240 N.3    25  CYS25      -0.1221
     21  CA         4.1440   -7.9260   10.9600 C.3    25  CYS25       0.1808
     22  C          3.5230   -6.9130   10.0010 C.2    25  CYS25       0.2601
     23  O          3.5660   -5.7130   10.2490 O.2    25  CYS25      -0.2717
     24  CB         5.5220   -8.3350   10.4490 C.3    25  CYS25       0.0970
     25  SG         5.4950   -9.2930    8.9080 S.3    25  CYS25      -0.0800
     26  N          2.9440   -7.4120    8.9140 N.am   26  TRP26      -0.1976
     27  CA         2.3020   -6.5660    7.9030 C.3    26  TRP26       0.1640
     28  C          1.1940   -5.6920    8.5120 C.2    26  TRP26       0.2290
     29  O          1.0020   -4.5450    8.1040 O.2    26  TRP26      -0.2864
     30  CB         1.7120   -7.4400    6.7940 C.3    26  TRP26       0.0576
     31  CG         0.6980   -8.4250    7.3110 C.ar   26  TRP26       0.0006
     32  CD1        0.9510   -9.6420    7.8810 C.ar   26  TRP26       0.0946
     33  CD2       -0.7260   -8.2580    7.3380 C.ar   26  TRP26       0.0152
     34  NE1       -0.2260  -10.2370    8.2650 N.ar   26  TRP26      -0.2442
     35  CE2       -1.2700   -9.4110    7.9440 C.ar   26  TRP26       0.0810
     36  CE3       -1.5940   -7.2430    6.9080 C.ar   26  TRP26       0.0012
     37  CZ2       -2.6440   -9.5810    8.1330 C.ar   26  TRP26       0.0191
     38  CZ3       -2.9610   -7.4150    7.0980 C.ar   26  TRP26       0.0001
     39  CH2       -3.4700   -8.5750    7.7050 C.ar   26  TRP26       0.0015
     40  N         -8.1530  -10.3330    2.4050 N.3    59  THR59      -0.1203
     41  CA        -7.2980  -10.2450    1.2210 C.3    59  THR59       0.1994
     42  C         -5.8590  -10.5590    1.6350 C.2    59  THR59       0.2618
     43  O         -4.9540  -10.6440    0.8020 O.2    59  THR59      -0.2717
     44  CB        -7.3780   -8.8650    0.5240 C.3    59  THR59       0.1784
     45  OG1       -6.7330   -7.8740    1.3260 O.3    59  THR59      -0.2211
     46  CG2       -8.8340   -8.4620    0.3110 C.3    59  THR59       0.0376
     47  N         -5.6680  -10.7230    2.9410 N.am   60  ASP60      -0.1959
     48  CA        -4.3760  -11.0800    3.5080 C.3    60  ASP60       0.1840
     49  C         -4.5240  -12.4020    4.2650 C.2    60  ASP60       0.2622
     50  O         -5.6140  -12.9860    4.2810 O.2    60  ASP60      -0.2715
     51  CB        -3.8250   -9.9390    4.3590 C.3    60  ASP60       0.1450
     52  CG        -3.2890   -8.8100    3.4990 C.2    60  ASP60       0.3671
     53  OD1       -2.3840   -9.0710    2.6870 O.co2  60  ASP60      -0.2456
     54  OD2       -3.8020   -7.6820    3.5680 O.co2  60  ASP60      -0.2456
     55  N         -3.4460  -12.8870    4.8740 N.am   61  SER61      -0.1950
     56  CA        -3.5010  -14.1850    5.5370 C.3    61  SER61       0.1924
     57  C         -3.2090  -14.2610    7.0320 C.2    61  SER61       0.2314
     58  O         -2.5790  -15.2150    7.4920 O.2    61  SER61      -0.2863
     59  CB        -2.6120  -15.1740    4.7790 C.3    61  SER61       0.2116
     60  OG        -3.0110  -15.2820    3.4200 O.3    61  SER61      -0.2180
     61  N         -1.9550  -14.5800   10.5350 N.3    63  CYS63      -0.1221
     62  CA        -0.6610  -14.9630   11.0940 C.3    63  CYS63       0.1808
     63  C          0.2760  -15.6040   10.0780 C.2    63  CYS63       0.2602
     64  O          1.4510  -15.8270   10.3670 O.2    63  CYS63      -0.2717
     65  CB        -0.8530  -15.8850   12.2950 C.3    63  CYS63       0.0970
     66  SG        -1.6760  -15.0640   13.6920 S.3    63  CYS63      -0.0800
     67  N         -0.2420  -15.8970    8.8890 N.am   64  SER64      -0.1938
     68  CA         0.5570  -16.5030    7.8320 C.3    64  SER64       0.2055
     69  C          1.1570  -15.4710    6.8860 C.2    64  SER64       0.2644
     70  O          1.8010  -15.8260    5.9040 O.2    64  SER64      -0.2714
     71  CB        -0.2760  -17.5090    7.0440 C.3    64  SER64       0.2130
     72  OG        -0.6270  -18.6100    7.8560 O.3    64  SER64      -0.2179
     73  N          0.9080  -14.1940    7.1600 N.am   65  GLY65      -0.1939
     74  CA         1.4690  -13.1520    6.3190 C.3    65  GLY65       0.2014
     75  C          0.4820  -12.2580    5.5980 C.2    65  GLY65       0.2639
     76  O         -0.7230  -12.4960    5.6220 O.2    65  GLY65      -0.2714
     77  N          1.0150  -11.2300    4.9420 N.am   66  GLY66      -0.1939
     78  CA         0.1900  -10.2870    4.2120 C.3    66  GLY66       0.2014
     79  C          0.9890   -9.1140    3.6840 C.2    66  GLY66       0.2639
     80  O          2.1840   -8.9820    3.9650 O.2    66  GLY66      -0.2714
     81  N          0.3130   -8.2410    2.9440 N.am   67  LEU67      -0.1963
     82  CA         0.9360   -7.0680    2.3440 C.3    67  LEU67       0.1728
     83  C          0.2940   -5.7840    2.8590 C.2    67  LEU67       0.2616
     84  O         -0.9360   -5.6690    2.9190 O.2    67  LEU67      -0.2715
     85  CB         0.7980   -7.1270    0.8180 C.3    67  LEU67       0.0311
     86  CG         1.2430   -8.4260    0.1410 C.3    67  LEU67       0.0022
     87  CD1        0.9230   -8.3860   -1.3440 C.3    67  LEU67       0.0001
     88  CD2        2.7360   -8.6380    0.3750 C.3    67  LEU67       0.0001
     89  N          1.1320   -4.8240    3.2470 N.am   68  MET68      -0.1977
     90  CA         0.6370   -3.5460    3.7370 C.3    68  MET68       0.1605
     91  C         -0.2760   -2.8780    2.7070 C.2    68  MET68       0.2287
     92  O         -1.3020   -2.3150    3.0740 O.2    68  MET68      -0.2864
     93  CB         1.7920   -2.6120    4.1030 C.3    68  MET68       0.0413
     94  CG         2.5600   -3.0240    5.3490 C.3    68  MET68       0.0598
     95  SD         3.7470   -4.3610    5.0890 S.3    68  MET68      -0.1393
     96  CE         5.1090   -3.4360    4.3810 C.3    68  MET68       0.0692
     97  N         -2.1940   -4.3280    0.5100 N.3    70  ASN70      -0.1240
     98  CA        -3.4760   -5.0350    0.4930 C.3    70  ASN70       0.1653
     99  C         -4.2940   -4.5410    1.6790 C.2    70  ASN70       0.2266
    100  O         -5.4900   -4.2790    1.5550 O.2    70  ASN70      -0.2867
    101  CB        -3.2800   -6.5450    0.6420 C.3    70  ASN70       0.1155
    102  CG        -2.9520   -7.2330   -0.6610 C.2    70  ASN70       0.2627
    103  OD1       -2.8300   -6.6030   -1.7130 O.2    70  ASN70      -0.2716
    104  ND2       -2.8260   -8.5490   -0.6010 N.am   70  ASN70      -0.0877
    105  N          8.8850   -2.6560    3.6910 N.3   138  ALA138     -0.1245
    106  CA         9.1710   -4.0800    3.8040 C.3   138  ALA138      0.1562
    107  C         10.6940   -4.1860    3.8230 C.2   138  ALA138      0.2260
    108  O         11.3840   -3.3850    3.1910 O.2   138  ALA138     -0.2867
    109  CB         8.6050   -4.8370    2.6080 C.3   138  ALA138      0.0290
    110  N         14.4630   -9.2250    7.1250 N.3   141  ALA141     -0.1245
    111  CA        14.7760   -9.2710    8.5490 C.3   141  ALA141      0.1562
    112  C         15.5680  -10.5070    8.9920 C.2   141  ALA141      0.2260
    113  O         15.5100  -10.9010   10.1580 O.2   141  ALA141     -0.2867
    114  CB        13.5020   -9.1430    9.3650 C.3   141  ALA141      0.0290
    115  N         12.6180   -9.9560    0.8600 N.3   160  LEU160     -0.1231
    116  CA        11.7350   -9.1970    1.7490 C.3   160  LEU160      0.1693
    117  C         10.8500  -10.2090    2.4750 C.2   160  LEU160      0.2592
    118  O         10.2770  -11.0930    1.8380 O.2   160  LEU160     -0.2718
    119  CB        10.8430   -8.2420    0.9420 C.3   160  LEU160      0.0284
    120  CG        11.4690   -7.0860    0.1590 C.3   160  LEU160      0.0019
    121  CD1       10.3900   -6.3830   -0.6470 C.3   160  LEU160      0.0001
    122  CD2       12.1360   -6.1060    1.1020 C.3   160  LEU160      0.0001
    123  N         10.7490  -10.0930    3.7960 N.am  161  ASP161     -0.1960
    124  CA         9.9270  -11.0210    4.5740 C.3   161  ASP161      0.1840
    125  C          9.3500  -10.3970    5.8450 C.2   161  ASP161      0.2622
    126  O          8.7640  -11.0930    6.6750 O.2   161  ASP161     -0.2715
    127  CB        10.7480  -12.2680    4.9480 C.3   161  ASP161      0.1450
    128  CG        11.8910  -11.9680    5.9310 C.2   161  ASP161      0.3671
    129  OD1       12.6150  -12.9180    6.3000 O.co2 161  ASP161     -0.2456
    130  OD2       12.0750  -10.8040    6.3490 O.co2 161  ASP161     -0.2456
    131  N          9.5070   -9.0840    5.9900 N.am  162  HIS162     -0.1959
    132  CA         9.0460   -8.4050    7.1900 C.3   162  HIS162      0.1787
    133  C          8.5190   -7.0050    6.8870 C.2   162  HIS162      0.2620
    134  O          9.0040   -6.3390    5.9770 O.2   162  HIS162     -0.2715
    135  CB        10.2220   -8.3370    8.1710 C.3   162  HIS162      0.0785
    136  CG         9.8680   -7.8330    9.5340 C.ar  162  HIS162      0.0821
    137  ND1        8.6760   -8.1260   10.1580 N.ar  162  HIS162     -0.2267
    138  CD2       10.5750   -7.0830   10.4090 C.ar  162  HIS162      0.1154
    139  CE1        8.6630   -7.5770   11.3600 C.ar  162  HIS162      0.1986
    140  NE2        9.8050   -6.9390   11.5360 N.ar  162  HIS162     -0.2212
    141  N          7.5020   -6.5870    7.6360 N.am  163  GLY163     -0.1954
    142  CA         6.9280   -5.2650    7.4580 C.3   163  GLY163      0.1869
    143  C          7.1800   -4.4600    8.7160 C.2   163  GLY163      0.2309
    144  O          6.9190   -4.9380    9.8210 O.2   163  GLY163     -0.2863
    145  N          8.4000   -6.2690   17.9730 N.3   184  TRP184     -0.1241
    146  CA         8.8500   -7.4270   18.7460 C.3   184  TRP184      0.1605
    147  C          9.1490   -7.0450   20.2030 C.2   184  TRP184      0.2264
    148  O         10.0850   -7.5750   20.8060 O.2   184  TRP184     -0.2867
    149  CB        10.1160   -8.0170   18.1110 C.3   184  TRP184      0.0550
    150  CG         9.9640   -8.4990   16.6950 C.ar  184  TRP184      0.0003
    151  CD1        8.7960   -8.7060   16.0050 C.ar  184  TRP184      0.0946
    152  CD2       11.0260   -8.8330   15.7930 C.ar  184  TRP184      0.0152
    153  NE1        9.0710   -9.1450   14.7310 N.ar  184  TRP184     -0.2442
    154  CE2       10.4300   -9.2330   14.5730 C.ar  184  TRP184      0.0810
    155  CE3       12.4250   -8.8330   15.8970 C.ar  184  TRP184      0.0012
    156  CZ2       11.1870   -9.6250   13.4620 C.ar  184  TRP184      0.0191
    157  CZ3       13.1780   -9.2230   14.7900 C.ar  184  TRP184      0.0001
    158  CH2       12.5550   -9.6150   13.5890 C.ar  184  TRP184      0.0015
    159  N          9.7530   -1.7020   -1.0880 N.3   208  GLU208     -0.1245
    160  CA         8.2980   -1.6990   -0.9700 C.3   208  GLU208      0.1567
    161  C          7.8260   -0.7130    0.0950 C.2   208  GLU208      0.2260
    162  O          7.3570   -1.1120    1.1630 O.2   208  GLU208     -0.2867
    163  CB         7.8320   -3.1160   -0.6180 C.3   208  GLU208      0.0388
    164  CG         6.3850   -3.4180   -0.9570 C.3   208  GLU208      0.1160
    165  CD         6.1660   -3.5790   -2.4480 C.2   208  GLU208      0.3649
    166  OE1        6.8430   -4.4290   -3.0630 O.co2 208  GLU208     -0.2457
    167  OE2        5.3130   -2.8550   -3.0030 O.co2 208  GLU208     -0.2457
@<TRIPOS>BOND
     1   166   165   ar
     2   167   165   ar
     3   165   164    1
     4   103   102    2
     5    87    86    1
     6   159   160    1
     7   160   163    1
     8   160   161    1
     9   164   163    1
    10   102   104   am
    11   102   101    1
    12   121   120    1
    13   161   162    2
    14    86    88    1
    15    86    85    1
    16   120   119    1
    17   120   122    1
    18    46    44    1
    19    98    97    1
    20    98   101    1
    21    98    99    1
    22    44    41    1
    23    44    45    1
    24    43    42    2
    25    85    82    1
    26   115   116    1
    27   119   116    1
    28    41    42    1
    29    41    40    1
    30   100    99    2
    31    42    47   am
    32   116   117    1
    33   118   117    2
    34    82    83    1
    35    82    81    1
    36   117   123   am
    37   109   106    1
    38    53    52   ar
    39    91    92    2
    40    91    90    1
    41    83    84    2
    42    83    89   am
    43    47    48    1
    44    81    79   am
    45   108   107    2
    46    89    90    1
    47    60    59    1
    48    52    54   ar
    49    52    51    1
    50    48    49    1
    51    48    51    1
    52    79    80    2
    53    79    78    1
    54   105   106    1
    55    90    93    1
    56   123   124    1
    57   106   107    1
    58    93    94    1
    59    78    77    1
    60    49    50    2
    61    49    55   am
    62    96    95    1
    63   124   127    1
    64   124   125    1
    65    59    56    1
    66    55    56    1
    67    77    75   am
    68   127   128    1
    69    95    94    1
    70    56    57    1
    71    75    76    2
    72    75    74    1
    73   125   131   am
    74   125   126    2
    75    70    69    2
    76   128   129   ar
    77   128   130   ar
    78   134   133    2
    79   131   132    1
    80    74    73    1
    81    30    31    1
    82    30    27    1
    83    69    73   am
    84    69    68    1
    85   133   132    1
    86   133   141   am
    87    36    38   ar
    88    36    33   ar
    89    57    58    2
    90    71    68    1
    91    71    72    1
    92    38    39   ar
    93   110   111    1
    94   132   135    1
    95    31    33   ar
    96    31    32   ar
    97    33    35   ar
    98   142   141    1
    99   142   143    1
   100    39    37   ar
   101    68    67    1
   102    32    34   ar
   103    27    28    1
   104    27    26    1
   105    35    37   ar
   106    35    34   ar
   107    29    28    2
   108   135   136    1
   109   111   112    1
   110   111   114    1
   111   143   144    2
   112    67    63   am
   113    25    24    1
   114    26    22   am
   115   112   113    2
   116   136   137   ar
   117   136   138   ar
   118    19    18    2
   119    22    23    2
   120    22    21    1
   121    63    64    2
   122    63    62    1
   123   137   139   ar
   124   138   140   ar
   125    24    21    1
   126    61    62    1
   127    21    20    1
   128    18    17    1
   129    62    65    1
   130   139   140   ar
   131    17    16    1
   132    65    66    1
   133    16    12   am
   134   156   158   ar
   135   156   154   ar
   136   158   157   ar
   137    66    15    1
   138     9     7   am
   139    15    14    1
   140    12    13    2
   141    12    11    1
   142     8     7    2
   143     7     6    1
   144   154   153   ar
   145   154   152   ar
   146   153   151   ar
   147   157   155   ar
   148    11    14    1
   149    11    10    1
   150   152   155   ar
   151   152   150   ar
   152     6     5    1
   153   151   150   ar
   154     5     2    1
   155   150   149    1
   156     2     3    1
   157     2     1    1
   158     4     3    2
   159   145   146    1
   160   149   146    1
   161   146   147    1
   162   147   148    2
