@<TRIPOS>MOLECULE
tmp/1f2bA00.pdb
 175 168 0 0 0
SMALL
GASTEIGER

@<TRIPOS>ATOM
      1  N          3.8110   -8.3880   18.4800 N.3    19  GLN19      -0.1245
      2  CA         3.0450   -9.2540   17.5900 C.3    19  GLN19       0.1566
      3  C          2.9980  -10.6950   18.0910 C.2    19  GLN19       0.2260
      4  O          2.1820  -11.4970   17.6310 O.2    19  GLN19      -0.2867
      5  CB         3.5820   -9.1920   16.1540 C.3    19  GLN19       0.0367
      6  CG         4.9970   -9.6730   15.9690 C.3    19  GLN19       0.0905
      7  CD         5.4120   -9.6730   14.5100 C.2    19  GLN19       0.2608
      8  OE1        5.8090   -8.6460   13.9670 O.2    19  GLN19      -0.2717
      9  NE2        5.3140  -10.8310   13.8670 N.am   19  GLN19      -0.0878
     10  N          2.6190  -14.1850   12.7240 N.3    23  GLY23      -0.1225
     11  CA         3.3470  -13.5320   11.6430 C.3    23  GLY23       0.1811
     12  C          2.5400  -12.3850   11.0660 C.2    23  GLY23       0.2280
     13  O          2.3570  -12.2800    9.8480 O.2    23  GLY23      -0.2866
     14  N          3.2960   -9.1540   11.1410 N.3    25  CYS25      -0.1221
     15  CA         4.1440   -7.9770   10.9890 C.3    25  CYS25       0.1808
     16  C          3.5310   -6.9420   10.0530 C.2    25  CYS25       0.2601
     17  O          3.5530   -5.7530   10.3410 O.2    25  CYS25      -0.2717
     18  CB         5.5150   -8.3880   10.4630 C.3    25  CYS25       0.0970
     19  SG         5.4580   -9.3340    8.9120 S.3    25  CYS25      -0.0800
     20  N          2.9650   -7.4170    8.9470 N.am   26  TRP26      -0.1976
     21  CA         2.3350   -6.5610    7.9390 C.3    26  TRP26       0.1640
     22  C          1.2290   -5.6790    8.5260 C.2    26  TRP26       0.2290
     23  O          1.0110   -4.5550    8.0740 O.2    26  TRP26      -0.2864
     24  CB         1.7510   -7.4320    6.8230 C.3    26  TRP26       0.0576
     25  CG         0.7250   -8.4200    7.3250 C.ar   26  TRP26       0.0006
     26  CD1        0.9730   -9.6380    7.8960 C.ar   26  TRP26       0.0946
     27  CD2       -0.7020   -8.2520    7.3360 C.ar   26  TRP26       0.0152
     28  NE1       -0.2100  -10.2330    8.2640 N.ar   26  TRP26      -0.2442
     29  CE2       -1.2510   -9.4070    7.9310 C.ar   26  TRP26       0.0810
     30  CE3       -1.5690   -7.2410    6.8990 C.ar   26  TRP26       0.0012
     31  CZ2       -2.6250   -9.5750    8.1040 C.ar   26  TRP26       0.0191
     32  CZ3       -2.9350   -7.4120    7.0710 C.ar   26  TRP26       0.0001
     33  CH2       -3.4480   -8.5710    7.6670 C.ar   26  TRP26       0.0015
     34  N         -8.1760  -10.3150    2.4300 N.3    59  THR59      -0.1203
     35  CA        -7.3420  -10.2340    1.2340 C.3    59  THR59       0.1994
     36  C         -5.9040  -10.5550    1.6300 C.2    59  THR59       0.2618
     37  O         -5.0170  -10.6660    0.7800 O.2    59  THR59      -0.2717
     38  CB        -7.4310   -8.8560    0.5610 C.3    59  THR59       0.1784
     39  OG1       -6.8230   -7.8670    1.3940 O.3    59  THR59      -0.2211
     40  CG2       -8.8840   -8.4850    0.3210 C.3    59  THR59       0.0376
     41  N         -5.7000  -10.7110    2.9380 N.am   60  ASP60      -0.1959
     42  CA        -4.4040  -11.0670    3.5050 C.3    60  ASP60       0.1840
     43  C         -4.5390  -12.3820    4.2690 C.2    60  ASP60       0.2622
     44  O         -5.6360  -12.9530    4.3220 O.2    60  ASP60      -0.2715
     45  CB        -3.8460   -9.9330    4.3610 C.3    60  ASP60       0.1450
     46  CG        -3.2740   -8.8210    3.5140 C.2    60  ASP60       0.3671
     47  OD1       -2.3900   -9.1080    2.6920 O.co2  60  ASP60      -0.2456
     48  OD2       -3.7380   -7.6750    3.6070 O.co2  60  ASP60      -0.2456
     49  N         -3.4450  -12.8730    4.8480 N.am   61  SER61      -0.1950
     50  CA        -3.4860  -14.1700    5.5210 C.3    61  SER61       0.1924
     51  C         -3.2030  -14.2410    7.0180 C.2    61  SER61       0.2314
     52  O         -2.5330  -15.1630    7.4780 O.2    61  SER61      -0.2863
     53  CB        -2.5790  -15.1510    4.7750 C.3    61  SER61       0.2116
     54  OG        -2.9350  -15.2320    3.4040 O.3    61  SER61      -0.2180
     55  N         -2.0190  -14.6210   10.5300 N.3    63  CYS63      -0.1221
     56  CA        -0.7260  -15.0070   11.0940 C.3    63  CYS63       0.1808
     57  C          0.2270  -15.6690   10.1030 C.2    63  CYS63       0.2602
     58  O          1.3880  -15.9210   10.4320 O.2    63  CYS63      -0.2717
     59  CB        -0.9210  -15.9000   12.3200 C.3    63  CYS63       0.0970
     60  SG        -1.7250  -15.0450   13.7090 S.3    63  CYS63      -0.0800
     61  N         -0.2550  -15.9500    8.8970 N.am   64  SER64      -0.1938
     62  CA         0.5640  -16.5670    7.8620 C.3    64  SER64       0.2055
     63  C          1.1960  -15.5330    6.9350 C.2    64  SER64       0.2644
     64  O          1.9480  -15.8840    6.0300 O.2    64  SER64      -0.2714
     65  CB        -0.2590  -17.5640    7.0470 C.3    64  SER64       0.2130
     66  OG        -0.5670  -18.7060    7.8200 O.3    64  SER64      -0.2179
     67  N          0.8740  -14.2610    7.1470 N.am   65  GLY65      -0.1939
     68  CA         1.4500  -13.2210    6.3100 C.3    65  GLY65       0.2014
     69  C          0.4670  -12.2950    5.6230 C.2    65  GLY65       0.2639
     70  O         -0.7410  -12.5000    5.6780 O.2    65  GLY65      -0.2714
     71  N          1.0070  -11.2750    4.9620 N.am   66  GLY66      -0.1939
     72  CA         0.1890  -10.3040    4.2630 C.3    66  GLY66       0.2014
     73  C          0.9990   -9.1450    3.7200 C.2    66  GLY66       0.2639
     74  O          2.1960   -9.0150    4.0000 O.2    66  GLY66      -0.2714
     75  N          0.3330   -8.2900    2.9560 N.am   67  LEU67      -0.1963
     76  CA         0.9490   -7.1260    2.3400 C.3    67  LEU67       0.1728
     77  C          0.3160   -5.8430    2.8770 C.2    67  LEU67       0.2616
     78  O         -0.9090   -5.7500    3.0060 O.2    67  LEU67      -0.2715
     79  CB         0.7700   -7.1890    0.8190 C.3    67  LEU67       0.0311
     80  CG         1.2290   -8.4720    0.1170 C.3    67  LEU67       0.0022
     81  CD1        0.9180   -8.3980   -1.3650 C.3    67  LEU67       0.0001
     82  CD2        2.7270   -8.6690    0.3450 C.3    67  LEU67       0.0001
     83  N          1.1520   -4.8620    3.2140 N.am   68  MET68      -0.1977
     84  CA         0.6540   -3.5940    3.7310 C.3    68  MET68       0.1605
     85  C         -0.2650   -2.9180    2.7200 C.2    68  MET68       0.2287
     86  O         -1.2740   -2.3310    3.1000 O.2    68  MET68      -0.2864
     87  CB         1.8020   -2.6510    4.1020 C.3    68  MET68       0.0413
     88  CG         2.5480   -3.0530    5.3600 C.3    68  MET68       0.0598
     89  SD         3.7630   -4.3610    5.0810 S.3    68  MET68      -0.1393
     90  CE         5.1300   -3.3720    4.4080 C.3    68  MET68       0.0692
     91  N         -2.1960   -4.3580    0.5400 N.3    70  ASN70      -0.1240
     92  CA        -3.4830   -5.0670    0.5150 C.3    70  ASN70       0.1653
     93  C         -4.3260   -4.5770    1.6910 C.2    70  ASN70       0.2266
     94  O         -5.5290   -4.3440    1.5580 O.2    70  ASN70      -0.2867
     95  CB        -3.2900   -6.5850    0.6570 C.3    70  ASN70       0.1155
     96  CG        -2.9410   -7.2710   -0.6510 C.2    70  ASN70       0.2627
     97  OD1       -2.7390   -6.6280   -1.6760 O.2    70  ASN70      -0.2716
     98  ND2       -2.8690   -8.5970   -0.6140 N.am   70  ASN70      -0.0877
     99  N          8.9030   -2.6430    3.6750 N.3   138  ALA138     -0.1245
    100  CA         9.1900   -4.0660    3.7680 C.3   138  ALA138      0.1562
    101  C         10.7120   -4.1810    3.7910 C.2   138  ALA138      0.2260
    102  O         11.4100   -3.4030    3.1300 O.2   138  ALA138     -0.2867
    103  CB         8.6220   -4.8080    2.5650 C.3   138  ALA138      0.0290
    104  N         14.5190   -9.2160    7.0940 N.3   141  ALA141     -0.1231
    105  CA        14.8650   -9.2270    8.5030 C.3   141  ALA141      0.1694
    106  C         15.6180  -10.4770    8.9620 C.2   141  ALA141      0.2592
    107  O         15.5600  -10.8410   10.1300 O.2   141  ALA141     -0.2718
    108  CB        13.6230   -9.0160    9.3420 C.3   141  ALA141      0.0304
    109  N         16.3580  -11.1030    8.0520 N.am  142  SER142     -0.1952
    110  CA        17.1360  -12.3030    8.3650 C.3   142  SER142      0.1924
    111  C         18.1790  -12.0890    9.4590 C.2   142  SER142      0.2314
    112  O         18.3190  -12.9100   10.3620 O.2   142  SER142     -0.2863
    113  CB        17.8440  -12.8150    7.1080 C.3   142  SER142      0.2116
    114  OG        16.9030  -13.2370    6.1470 O.3   142  SER142     -0.2180
    115  N         17.5170  -11.0510   14.1040 N.3   145  MET145     -0.1245
    116  CA        17.3480  -11.8340   15.3290 C.3   145  MET145      0.1570
    117  C         18.4850  -11.6530   16.3150 C.2   145  MET145      0.2261
    118  O         18.2880  -11.7470   17.5260 O.2   145  MET145     -0.2867
    119  CB        17.1580  -13.3130   14.9920 C.3   145  MET145      0.0387
    120  CG        15.7810  -13.6170   14.4250 C.3   145  MET145      0.0595
    121  SD        15.0020  -12.1220   13.8090 S.3   145  MET145     -0.1393
    122  CE        14.9070  -12.4950   12.2120 C.3   145  MET145      0.0692
    123  N         12.6750   -9.9210    0.8770 N.3   160  LEU160     -0.1231
    124  CA        11.7590   -9.1910    1.7550 C.3   160  LEU160      0.1693
    125  C         10.9010  -10.2160    2.4860 C.2   160  LEU160      0.2592
    126  O         10.3360  -11.1030    1.8570 O.2   160  LEU160     -0.2718
    127  CB        10.8510   -8.2640    0.9340 C.3   160  LEU160      0.0284
    128  CG        11.4960   -7.1690    0.0760 C.3   160  LEU160      0.0019
    129  CD1       10.4300   -6.4860   -0.7640 C.3   160  LEU160      0.0001
    130  CD2       12.2210   -6.1590    0.9490 C.3   160  LEU160      0.0001
    131  N         10.8060  -10.1010    3.8070 N.am  161  ASP161     -0.1960
    132  CA        10.0160  -11.0470    4.5920 C.3   161  ASP161      0.1840
    133  C          9.4450  -10.4270    5.8590 C.2   161  ASP161      0.2622
    134  O          8.9050  -11.1310    6.7110 O.2   161  ASP161     -0.2715
    135  CB        10.8810  -12.2620    4.9770 C.3   161  ASP161      0.1450
    136  CG        12.0590  -11.9020    5.9040 C.2   161  ASP161      0.3671
    137  OD1       12.8960  -12.7930    6.1730 O.co2 161  ASP161     -0.2456
    138  OD2       12.1590  -10.7470    6.3760 O.co2 161  ASP161     -0.2456
    139  N          9.5590   -9.1090    5.9780 N.am  162  HIS162     -0.1959
    140  CA         9.1010   -8.4260    7.1750 C.3   162  HIS162      0.1787
    141  C          8.5650   -7.0250    6.8640 C.2   162  HIS162      0.2620
    142  O          9.0100   -6.3790    5.9170 O.2   162  HIS162     -0.2715
    143  CB        10.2820   -8.3470    8.1420 C.3   162  HIS162      0.0785
    144  CG         9.9340   -7.8410    9.5070 C.ar  162  HIS162      0.0821
    145  ND1        8.7380   -8.1140   10.1230 N.ar  162  HIS162     -0.2267
    146  CD2       10.6530   -7.1050   10.3850 C.ar  162  HIS162      0.1154
    147  CE1        8.7300   -7.5720   11.3290 C.ar  162  HIS162      0.1986
    148  NE2        9.8810   -6.9550   11.5110 N.ar  162  HIS162     -0.2212
    149  N          7.5740   -6.5940    7.6390 N.am  163  GLY163     -0.1954
    150  CA         6.9890   -5.2730    7.4610 C.3   163  GLY163      0.1869
    151  C          7.2420   -4.4510    8.7140 C.2   163  GLY163      0.2309
    152  O          6.9390   -4.8990    9.8230 O.2   163  GLY163     -0.2863
    153  N          8.4280   -6.3040   17.9930 N.3   184  TRP184     -0.1241
    154  CA         8.8790   -7.4560   18.7660 C.3   184  TRP184      0.1605
    155  C          9.1890   -7.0640   20.2040 C.2   184  TRP184      0.2264
    156  O         10.1330   -7.5870   20.7840 O.2   184  TRP184     -0.2867
    157  CB        10.1390   -8.0580   18.1250 C.3   184  TRP184      0.0550
    158  CG         9.9690   -8.5040   16.7010 C.ar  184  TRP184      0.0003
    159  CD1        8.7920   -8.6910   16.0260 C.ar  184  TRP184      0.0946
    160  CD2       11.0150   -8.8290   15.7820 C.ar  184  TRP184      0.0152
    161  NE1        9.0450   -9.1090   14.7460 N.ar  184  TRP184     -0.2442
    162  CE2       10.4000   -9.2040   14.5650 C.ar  184  TRP184      0.0810
    163  CE3       12.4150   -8.8410   15.8640 C.ar  184  TRP184      0.0012
    164  CZ2       11.1370   -9.5860   13.4390 C.ar  184  TRP184      0.0191
    165  CZ3       13.1490   -9.2240   14.7390 C.ar  184  TRP184      0.0001
    166  CH2       12.5060   -9.5910   13.5430 C.ar  184  TRP184      0.0015
    167  N          9.7970   -1.6940   -1.0750 N.3   208  GLU208     -0.1245
    168  CA         8.3430   -1.6670   -0.9690 C.3   208  GLU208      0.1567
    169  C          7.8690   -0.6920    0.0980 C.2   208  GLU208      0.2260
    170  O          7.4050   -1.0930    1.1690 O.2   208  GLU208     -0.2867
    171  CB         7.8210   -3.0730   -0.6690 C.3   208  GLU208      0.0388
    172  CG         6.3070   -3.1890   -0.6850 C.3   208  GLU208      0.1160
    173  CD         5.7990   -4.0920   -1.7880 C.2   208  GLU208      0.3649
    174  OE1        4.8540   -4.8690   -1.5190 O.co2 208  GLU208     -0.2457
    175  OE2        6.3380   -4.0250   -2.9170 O.co2 208  GLU208     -0.2457
@<TRIPOS>BOND
     1   175   173   ar
     2   173   174   ar
     3   173   172    1
     4    97    96    2
     5    81    80    1
     6   167   168    1
     7   168   171    1
     8   168   169    1
     9   129   128    1
    10   172   171    1
    11    96    98   am
    12    96    95    1
    13   128   127    1
    14   128   130    1
    15   169   170    2
    16    80    82    1
    17    80    79    1
    18    40    38    1
    19    92    91    1
    20    92    95    1
    21    92    93    1
    22    38    35    1
    23    38    39    1
    24    37    36    2
    25    79    76    1
    26   123   124    1
    27   127   124    1
    28    35    36    1
    29    35    34    1
    30    94    93    2
    31    36    41   am
    32   124   125    1
    33   126   125    2
    34    76    77    1
    35    76    75    1
    36   125   131   am
    37   103   100    1
    38    47    46   ar
    39    85    86    2
    40    85    84    1
    41    77    78    2
    42    77    83   am
    43    41    42    1
    44    75    73   am
    45   102   101    2
    46    83    84    1
    47    54    53    1
    48    42    43    1
    49    42    45    1
    50    46    48   ar
    51    46    45    1
    52    99   100    1
    53    73    74    2
    54    73    72    1
    55    84    87    1
    56   100   101    1
    57   131   132    1
    58    87    88    1
    59    72    71    1
    60    43    44    2
    61    43    49   am
    62    90    89    1
    63   132   135    1
    64   132   133    1
    65    53    50    1
    66    49    50    1
    67    71    69   am
    68   135   136    1
    69    89    88    1
    70    50    51    1
    71    69    70    2
    72    69    68    1
    73   133   139   am
    74   133   134    2
    75   136   137   ar
    76   136   138   ar
    77   142   141    2
    78   139   140    1
    79    64    63    2
    80   114   113    1
    81    68    67    1
    82    24    25    1
    83    24    21    1
    84   141   140    1
    85   141   149   am
    86    30    32   ar
    87    30    27   ar
    88    63    67   am
    89    63    62    1
    90    51    52    2
    91    65    66    1
    92    65    62    1
    93    32    33   ar
    94   104   105    1
    95   113   110    1
    96   140   143    1
    97    25    27   ar
    98    25    26   ar
    99    27    29   ar
   100   150   149    1
   101   150   151    1
   102    33    31   ar
   103    62    61    1
   104    26    28   ar
   105    29    31   ar
   106    29    28   ar
   107    21    22    1
   108    21    20    1
   109   109   110    1
   110   109   106   am
   111    23    22    2
   112   143   144    1
   113   110   111    1
   114   105   106    1
   115   105   108    1
   116   151   152    2
   117    61    57   am
   118    19    18    1
   119    20    16   am
   120   106   107    2
   121   111   112    2
   122   144   145   ar
   123   144   146   ar
   124    13    12    2
   125    16    17    2
   126    16    15    1
   127    57    58    2
   128    57    56    1
   129   145   147   ar
   130   146   148   ar
   131    18    15    1
   132    55    56    1
   133    15    14    1
   134    12    11    1
   135    56    59    1
   136   147   148   ar
   137    11    10    1
   138   122   121    1
   139    59    60    1
   140   164   166   ar
   141   164   162   ar
   142   166   165   ar
   143   121   120    1
   144     9     7   am
   145     8     7    2
   146   115   116    1
   147   120   119    1
   148     7     6    1
   149   162   161   ar
   150   162   160   ar
   151   165   163   ar
   152   161   159   ar
   153   119   116    1
   154   116   117    1
   155   160   163   ar
   156   160   158   ar
   157     6     5    1
   158   159   158   ar
   159     5     2    1
   160   117   118    2
   161   158   157    1
   162     2     3    1
   163     2     1    1
   164     4     3    2
   165   153   154    1
   166   157   154    1
   167   154   155    1
   168   155   156    2
