@<TRIPOS>MOLECULE
tmp/1f2cA00.pdb
 169 163 0 0 0
SMALL
GASTEIGER

@<TRIPOS>ATOM
      1  N          1.2590  -12.8140   22.6480 N.3    19  GLN19      -0.1245
      2  CA         0.2840  -11.7530   22.4800 C.3    19  GLN19       0.1566
      3  C         -0.9980  -12.0320   23.2710 C.2    19  GLN19       0.2260
      4  O         -1.7690  -11.1230   23.5440 O.2    19  GLN19      -0.2867
      5  CB        -0.0150  -11.5110   20.9920 C.3    19  GLN19       0.0367
      6  CG        -0.6180  -12.6780   20.2510 C.3    19  GLN19       0.0905
      7  CD        -0.8020  -12.3890   18.7700 C.2    19  GLN19       0.2608
      8  OE1        0.1580  -12.4070   18.0010 O.2    19  GLN19      -0.2717
      9  NE2       -2.0440  -12.1450   18.3610 N.am   19  GLN19      -0.0878
     10  N         -5.4100   -9.4150   19.3650 N.3    23  GLY23      -0.1225
     11  CA        -4.9240   -9.4840   17.9890 C.3    23  GLY23       0.1811
     12  C         -3.8890   -8.4060   17.6990 C.2    23  GLY23       0.2280
     13  O         -4.0030   -7.6400   16.7380 O.2    23  GLY23      -0.2866
     14  N         -0.7510   -8.9600   16.9010 N.3    25  CYS25      -0.1221
     15  CA         0.3340   -9.5380   16.1150 C.3    25  CYS25       0.1808
     16  C          1.1410   -8.4910   15.3510 C.2    25  CYS25       0.2601
     17  O          2.3660   -8.5910   15.2590 O.2    25  CYS25      -0.2717
     18  CB        -0.2290  -10.5580   15.1320 C.3    25  CYS25       0.0970
     19  SG        -1.3870   -9.8380   13.9310 S.3    25  CYS25      -0.0800
     20  N          0.4520   -7.4840   14.8180 N.am   26  TRP26      -0.1976
     21  CA         1.0890   -6.4110   14.0530 C.3    26  TRP26       0.1640
     22  C          2.1440   -5.6570   14.8740 C.2    26  TRP26       0.2290
     23  O          3.1890   -5.2660   14.3540 O.2    26  TRP26      -0.2864
     24  CB         0.0250   -5.4330   13.5350 C.3    26  TRP26       0.0576
     25  CG        -0.8010   -4.8130   14.6360 C.ar   26  TRP26       0.0006
     26  CD1       -1.8460   -5.3890   15.3020 C.ar   26  TRP26       0.0946
     27  CD2       -0.6040   -3.5250   15.2380 C.ar   26  TRP26       0.0152
     28  NE1       -2.3020   -4.5460   16.2880 N.ar   26  TRP26      -0.2442
     29  CE2       -1.5600   -3.3970   16.2710 C.ar   26  TRP26       0.0810
     30  CE3        0.2930   -2.4750   15.0080 C.ar   26  TRP26       0.0012
     31  CZ2       -1.6460   -2.2540   17.0740 C.ar   26  TRP26       0.0191
     32  CZ3        0.2080   -1.3360   15.8090 C.ar   26  TRP26       0.0001
     33  CH2       -0.7560   -1.2370   16.8310 C.ar   26  TRP26       0.0015
     34  N         -3.7810    2.8140   14.2330 N.3    60  ASP60      -0.1225
     35  CA        -4.0450    1.3870   14.1700 C.3    60  ASP60       0.1805
     36  C         -5.1840    1.0090   15.1150 C.2    60  ASP60       0.2598
     37  O         -5.6990    1.8690   15.8330 O.2    60  ASP60      -0.2718
     38  CB        -2.7660    0.5900   14.4120 C.3    60  ASP60       0.1424
     39  CG        -1.8500    0.6130   13.1980 C.2    60  ASP60       0.3668
     40  OD1       -2.2700    0.1210   12.1330 O.co2  60  ASP60      -0.2456
     41  OD2       -0.7360    1.1620   13.2720 O.co2  60  ASP60      -0.2456
     42  N         -5.5740   -0.2660   15.1220 N.am   61  SER61      -0.1952
     43  CA        -6.7150   -0.7010   15.9300 C.3    61  SER61       0.1924
     44  C         -6.5000   -1.6060   17.1420 C.2    61  SER61       0.2314
     45  O         -7.3240   -2.4810   17.4070 O.2    61  SER61      -0.2863
     46  CB        -7.7640   -1.3310   15.0120 C.3    61  SER61       0.2116
     47  OG        -8.0990   -0.4480   13.9620 O.3    61  SER61      -0.2180
     48  N         -6.1580   -4.2550   19.7690 N.3    63  CYS63      -0.1221
     49  CA        -6.3750   -5.6990   19.7350 C.3    63  CYS63       0.1808
     50  C         -7.1980   -6.1640   18.5350 C.2    63  CYS63       0.2602
     51  O         -7.4500   -7.3590   18.3760 O.2    63  CYS63      -0.2717
     52  CB        -7.0230   -6.1910   21.0340 C.3    63  CYS63       0.0970
     53  SG        -5.9330   -6.0980   22.4880 S.3    63  CYS63      -0.0800
     54  N         -7.6040   -5.2240   17.6890 N.am   64  SER64      -0.1938
     55  CA        -8.3800   -5.5600   16.5060 C.3    64  SER64       0.2055
     56  C         -7.5740   -5.4510   15.2160 C.2    64  SER64       0.2644
     57  O         -8.1380   -5.4000   14.1300 O.2    64  SER64      -0.2714
     58  CB        -9.6530   -4.7180   16.4330 C.3    64  SER64       0.2130
     59  OG       -10.5380   -5.0770   17.4780 O.3    64  SER64      -0.2179
     60  N         -6.2510   -5.4020   15.3450 N.am   65  GLY65      -0.1939
     61  CA        -5.3960   -5.3440   14.1710 C.3    65  GLY65       0.2014
     62  C         -4.7370   -4.0290   13.8200 C.2    65  GLY65       0.2639
     63  O         -5.0650   -2.9730   14.3610 O.2    65  GLY65      -0.2714
     64  N         -3.8090   -4.1100   12.8740 N.am   66  GLY66      -0.1939
     65  CA        -3.0810   -2.9420   12.4280 C.3    66  GLY66       0.2014
     66  C         -2.0790   -3.3180   11.3550 C.2    66  GLY66       0.2639
     67  O         -2.0160   -4.4670   10.9220 O.2    66  GLY66      -0.2714
     68  N         -1.3060   -2.3430   10.9050 N.am   67  LEU67      -0.1963
     69  CA        -0.3090   -2.5800    9.8710 C.3    67  LEU67       0.1728
     70  C          1.0510   -2.1880   10.4260 C.2    67  LEU67       0.2616
     71  O          1.1660   -1.1880   11.1340 O.2    67  LEU67      -0.2715
     72  CB        -0.6180   -1.7350    8.6280 C.3    67  LEU67       0.0311
     73  CG        -2.0060   -1.8260    7.9750 C.3    67  LEU67       0.0022
     74  CD1       -2.1190   -0.7820    6.8780 C.3    67  LEU67       0.0001
     75  CD2       -2.2450   -3.2040    7.4000 C.3    67  LEU67       0.0001
     76  N          2.0720   -2.9850   10.1250 N.am   68  MET68      -0.1977
     77  CA         3.4220   -2.6890   10.5980 C.3    68  MET68       0.1605
     78  C          3.9260   -1.3560   10.0480 C.2    68  MET68       0.2287
     79  O          4.5980   -0.6080   10.7530 O.2    68  MET68      -0.2864
     80  CB         4.3920   -3.8150   10.2260 C.3    68  MET68       0.0413
     81  CG         4.1820   -5.1010   11.0140 C.3    68  MET68       0.0598
     82  SD         2.7540   -6.0610   10.4810 S.3    68  MET68      -0.1393
     83  CE         3.5350   -7.0410    9.1800 C.3    68  MET68       0.0692
     84  N          3.8430   -9.5960    6.4830 N.3   138  ALA138     -0.1245
     85  CA         2.4490   -9.9560    6.6950 C.3   138  ALA138      0.1562
     86  C          2.2480  -11.2760    5.9650 C.2   138  ALA138      0.2260
     87  O          2.8570  -11.5140    4.9170 O.2   138  ALA138     -0.2867
     88  CB         1.5250   -8.8870    6.1220 C.3   138  ALA138      0.0290
     89  N         -2.2020  -16.5040    8.0730 N.3   141  ALA141     -0.1231
     90  CA        -1.9590  -17.5180    9.0860 C.3   141  ALA141      0.1694
     91  C         -3.1720  -18.3880    9.4010 C.2   141  ALA141      0.2592
     92  O         -3.2740  -18.9490   10.4940 O.2   141  ALA141     -0.2718
     93  CB        -1.4280  -16.8700   10.3460 C.3   141  ALA141      0.0304
     94  N         -4.0820  -18.5100    8.4380 N.am  142  SER142     -0.1952
     95  CA        -5.2910  -19.3240    8.6040 C.3   142  SER142      0.1924
     96  C         -4.9890  -20.7830    8.9240 C.2   142  SER142      0.2314
     97  O         -5.6190  -21.3720    9.7980 O.2   142  SER142     -0.2863
     98  CB        -6.1430  -19.2850    7.3320 C.3   142  SER142      0.2116
     99  OG        -6.6670  -17.9980    7.1180 O.3   142  SER142     -0.2180
    100  N         -2.7970  -22.5760   12.7160 N.3   145  MET145     -0.1245
    101  CA        -3.2870  -23.0870   13.9960 C.3   145  MET145      0.1570
    102  C         -2.9830  -24.5590   14.2410 C.2   145  MET145      0.2261
    103  O         -2.8370  -24.9910   15.3870 O.2   145  MET145     -0.2867
    104  CB        -4.7860  -22.8280   14.1290 C.3   145  MET145      0.0387
    105  CG        -5.1060  -21.6370   15.0060 C.3   145  MET145      0.0595
    106  SD        -4.1700  -20.1700   14.5460 S.3   145  MET145     -0.1393
    107  CE        -5.2160  -18.8780   15.1770 C.3   145  MET145      0.0692
    108  N         -5.5400  -14.3530    2.0560 N.3   159  GLN159     -0.1231
    109  CA        -5.6780  -13.0190    2.6200 C.3   159  GLN159      0.1698
    110  C         -4.6500  -12.7110    3.7110 C.2   159  GLN159      0.2592
    111  O         -4.3970  -13.5350    4.5820 O.2   159  GLN159     -0.2718
    112  CB        -7.1010  -12.9210    3.1830 C.3   159  GLN159      0.0381
    113  CG        -7.4610  -11.6960    3.9860 C.3   159  GLN159      0.0905
    114  CD        -8.8230  -11.8560    4.6590 C.2   159  GLN159      0.2608
    115  OE1       -8.9690  -12.6260    5.6110 O.2   159  GLN159     -0.2717
    116  NE2       -9.8300  -11.1540    4.1440 N.am  159  GLN159     -0.0878
    117  N         -4.0580  -11.5200    3.6470 N.am  160  LEU160     -0.1966
    118  CA        -3.0750  -11.0800    4.6450 C.3   160  LEU160      0.1728
    119  C         -3.8350  -10.7470    5.9280 C.2   160  LEU160      0.2616
    120  O         -4.7000   -9.8690    5.9290 O.2   160  LEU160     -0.2715
    121  CB        -2.3010   -9.8500    4.1430 C.3   160  LEU160      0.0311
    122  CG        -1.3760   -9.9910    2.9230 C.3   160  LEU160      0.0022
    123  CD1       -0.7700   -8.6370    2.5740 C.3   160  LEU160      0.0001
    124  CD2       -0.2810  -11.0010    3.1970 C.3   160  LEU160      0.0001
    125  N         -3.4940  -11.4270    7.0210 N.am  161  ASP161     -0.1957
    126  CA        -4.1940  -11.2370    8.2920 C.3   161  ASP161      0.1840
    127  C         -3.3490  -11.4540    9.5430 C.2   161  ASP161      0.2622
    128  O         -3.8860  -11.5310   10.6460 O.2   161  ASP161     -0.2715
    129  CB        -5.3950  -12.1960    8.3490 C.3   161  ASP161      0.1450
    130  CG        -5.0290  -13.6190    7.9310 C.2   161  ASP161      0.3671
    131  OD1       -5.7290  -14.1890    7.0700 O.co2 161  ASP161     -0.2456
    132  OD2       -4.0350  -14.1680    8.4470 O.co2 161  ASP161     -0.2456
    133  N         -2.0350  -11.5590    9.3770 N.am  162  HIS162     -0.1959
    134  CA        -1.1500  -11.7960   10.5100 C.3   162  HIS162      0.1787
    135  C          0.2210  -11.1670   10.2600 C.2   162  HIS162      0.2620
    136  O          0.6810  -11.0960    9.1220 O.2   162  HIS162     -0.2715
    137  CB        -1.0160  -13.3060   10.7150 C.3   162  HIS162      0.0785
    138  CG        -0.1780  -13.6960   11.8910 C.ar  162  HIS162      0.0821
    139  ND1       -0.2450  -13.0450   13.1020 N.ar  162  HIS162     -0.2267
    140  CD2        0.7130  -14.7020   12.0510 C.ar  162  HIS162      0.1154
    141  CE1        0.5660  -13.6370   13.9630 C.ar  162  HIS162      0.1986
    142  NE2        1.1580  -14.6440   13.3490 N.ar  162  HIS162     -0.2212
    143  N          0.8540  -10.6860   11.3250 N.am  163  GLY163     -0.1954
    144  CA         2.1660  -10.0810   11.1920 C.3   163  GLY163      0.1869
    145  C          3.2120  -10.9130   11.9070 C.2   163  GLY163      0.2309
    146  O          3.0150  -11.2800   13.0660 O.2   163  GLY163     -0.2863
    147  N          3.0040  -16.4890   19.4990 N.3   184  TRP184     -0.1241
    148  CA         2.0130  -17.3540   20.1480 C.3   184  TRP184      0.1605
    149  C          2.6940  -18.3140   21.1460 C.2   184  TRP184      0.2264
    150  O          2.3110  -19.4810   21.2630 O.2   184  TRP184     -0.2867
    151  CB         1.2690  -18.1670   19.0830 C.3   184  TRP184      0.0550
    152  CG         0.5750  -17.3410   18.0190 C.ar  184  TRP184      0.0003
    153  CD1        0.3540  -15.9910   18.0280 C.ar  184  TRP184      0.0946
    154  CD2        0.0080  -17.8310   16.7950 C.ar  184  TRP184      0.0152
    155  NE1       -0.3100  -15.6100   16.8860 N.ar  184  TRP184     -0.2442
    156  CE2       -0.5370  -16.7180   16.1120 C.ar  184  TRP184      0.0810
    157  CE3       -0.0940  -19.1000   16.2090 C.ar  184  TRP184      0.0012
    158  CZ2       -1.1740  -16.8390   14.8730 C.ar  184  TRP184      0.0191
    159  CZ3       -0.7300  -19.2180   14.9730 C.ar  184  TRP184      0.0001
    160  CH2       -1.2590  -18.0940   14.3220 C.ar  184  TRP184      0.0015
    161  N          3.9190   -7.9140    1.7200 N.3   208  GLU208     -0.1245
    162  CA         4.1380   -6.6890    2.4930 C.3   208  GLU208      0.1567
    163  C          5.3000   -6.8080    3.4800 C.2   208  GLU208      0.2260
    164  O          5.1130   -6.9370    4.6920 O.2   208  GLU208     -0.2867
    165  CB         2.8470   -6.2940    3.2210 C.3   208  GLU208      0.0388
    166  CG         2.7560   -4.8180    3.6040 C.3   208  GLU208      0.1160
    167  CD         1.3320   -4.3820    3.9200 C.2   208  GLU208      0.3649
    168  OE1        0.3890   -4.9180    3.3010 O.co2 208  GLU208     -0.2457
    169  OE2        1.1510   -3.4990    4.7830 O.co2 208  GLU208     -0.2457
@<TRIPOS>BOND
     1   161   162    1
     2   108   109    1
     3   162   165    1
     4   162   163    1
     5   123   122    1
     6   109   112    1
     7   109   110    1
     8   122   124    1
     9   122   121    1
    10   112   113    1
    11   165   166    1
    12   168   167   ar
    13   163   164    2
    14   166   167    1
    15   117   110   am
    16   117   118    1
    17   110   111    2
    18   167   169   ar
    19   113   114    1
    20   121   118    1
    21   116   114   am
    22   118   119    1
    23   114   115    2
    24    87    86    2
    25   119   120    2
    26   119   125   am
    27    86    85    1
    28    88    85    1
    29    84    85    1
    30    74    73    1
    31   125   126    1
    32   131   130   ar
    33    99    98    1
    34    98    95    1
    35    75    73    1
    36   130   129    1
    37   130   132   ar
    38    73    72    1
    39    89    90    1
    40   126   129    1
    41   126   127    1
    42    94    95    1
    43    94    91   am
    44    95    96    1
    45    72    69    1
    46    96    97    2
    47    90    91    1
    48    90    93    1
    49   136   135    2
    50    83    82    1
    51   133   127   am
    52   133   134    1
    53    91    92    2
    54   127   128    2
    55    69    70    1
    56    69    68    1
    57    78    77    1
    58    78    79    2
    59    76    70   am
    60    76    77    1
    61    80    77    1
    62    80    81    1
    63   135   134    1
    64   135   143   am
    65    70    71    2
    66    82    81    1
    67   134   137    1
    68   137   138    1
    69    68    66   am
    70    67    66    2
    71   144   143    1
    72   144   145    1
    73    66    65    1
    74   138   140   ar
    75   138   139   ar
    76   145   146    2
    77   140   142   ar
    78    40    39   ar
    79    65    64    1
    80   100   101    1
    81    64    62   am
    82   139   141   ar
    83    39    41   ar
    84    39    38    1
    85   142   141   ar
    86    24    21    1
    87    24    25    1
    88    62    61    1
    89    62    63    2
    90    19    18    1
    91    47    46    1
    92   101   104    1
    93   101   102    1
    94    21    20    1
    95    21    22    1
    96   104   105    1
    97    57    56    2
    98    35    34    1
    99    35    38    1
   100    35    36    1
   101    61    60    1
   102   102   103    2
   103   160   158   ar
   104   160   159   ar
   105    23    22    2
   106   106   105    1
   107   106   107    1
   108    25    27   ar
   109    25    26   ar
   110    20    16   am
   111   158   156   ar
   112   159   157   ar
   113    30    27   ar
   114    30    32   ar
   115    46    43    1
   116    36    42   am
   117    36    37    2
   118    42    43    1
   119    18    15    1
   120    56    60   am
   121    56    55    1
   122    27    29   ar
   123    17    16    2
   124    26    28   ar
   125    16    15    1
   126    32    33   ar
   127    43    44    1
   128   156   154   ar
   129   156   155   ar
   130    15    14    1
   131   157   154   ar
   132    29    28   ar
   133    29    31   ar
   134    58    55    1
   135    58    59    1
   136    55    54    1
   137    13    12    2
   138   154   152   ar
   139    33    31   ar
   140   155   153   ar
   141    44    45    2
   142    54    50   am
   143    12    11    1
   144    11    10    1
   145     8     7    2
   146   152   153   ar
   147   152   151    1
   148     9     7   am
   149    51    50    2
   150    50    49    1
   151     7     6    1
   152   151   148    1
   153   147   148    1
   154    49    48    1
   155    49    52    1
   156   148   149    1
   157     6     5    1
   158     5     2    1
   159    52    53    1
   160   149   150    2
   161     2     1    1
   162     2     3    1
   163     3     4    2
