@<TRIPOS>MOLECULE
tmp/1f2eA00.pdb
 148 144 0 0 0
SMALL
GASTEIGER

@<TRIPOS>ATOM
      1  N         35.5200   -0.1270   14.0670 N.3     9  ALA9       -0.1231
      2  CA        34.1740   -0.2790   13.5210 C.3     9  ALA9        0.1694
      3  C         34.1460   -0.0550   12.0080 C.2     9  ALA9        0.2592
      4  O         35.1820    0.1920   11.3840 O.2     9  ALA9       -0.2718
      5  CB        33.2170    0.6910   14.2150 C.3     9  ALA9        0.0304
      6  N         32.9530   -0.1510   11.4260 N.am   10  CYS10      -0.1970
      7  CA        32.7690    0.0450    9.9910 C.3    10  CYS10       0.1712
      8  C         33.2720    1.4280    9.5510 C.2    10  CYS10       0.2296
      9  O         33.5380    1.6560    8.3690 O.2    10  CYS10      -0.2864
     10  CB        31.2840   -0.1040    9.6400 C.3    10  CYS10       0.0983
     11  SG        30.2400    0.8770   10.7360 S.3    10  CYS10      -0.0798
     12  N         30.3590    5.3040   21.6000 N.3    32  LEU32      -0.1245
     13  CA        29.0390    4.8250   21.2110 C.3    32  LEU32       0.1561
     14  C         28.1900    4.3800   22.3930 C.2    32  LEU32       0.2260
     15  O         26.9620    4.3980   22.3220 O.2    32  LEU32      -0.2867
     16  CB        29.1730    3.6870   20.1940 C.3    32  LEU32       0.0270
     17  CG        29.7630    4.1340   18.8490 C.3    32  LEU32       0.0019
     18  CD1       29.8780    2.9540   17.9020 C.3    32  LEU32       0.0001
     19  CD2       28.8770    5.2190   18.2490 C.3    32  LEU32       0.0001
     20  N         26.9940    7.8560   23.3770 N.3    35  ARG35      -0.1245
     21  CA        26.7820    8.8240   22.3010 C.3    35  ARG35       0.1563
     22  C         27.3920   10.1990   22.5600 C.2    35  ARG35       0.2260
     23  O         26.7150   11.2170   22.4350 O.2    35  ARG35      -0.2867
     24  CB        25.2860    8.9920   22.0200 C.3    35  ARG35       0.0307
     25  CG        24.6690    7.8840   21.1890 C.3    35  ARG35       0.0489
     26  CD        24.6830    6.5460   21.9100 C.3    35  ARG35       0.2205
     27  NE        23.9560    5.5250   21.1570 N.pl3  35  ARG35      -0.0865
     28  CZ        22.6480    5.5620   20.9110 C.cat  35  ARG35       0.5346
     29  NH1       21.9100    6.5690   21.3620 N.pl3  35  ARG35       0.1354
     30  NH2       22.0760    4.5970   20.2050 N.pl3  35  ARG35       0.1354
     31  N         22.6800    7.9270   15.8630 N.3    50  GLY50      -0.1210
     32  CA        23.7370    7.6030   16.8040 C.3    50  GLY50       0.1956
     33  C         24.7870    6.6620   16.2430 C.2    50  GLY50       0.2612
     34  O         25.5750    6.0890   16.9900 O.2    50  GLY50      -0.2717
     35  N         24.8160    6.5060   14.9240 N.am   51  LYS51      -0.1965
     36  CA        25.7790    5.6030   14.3030 C.3    51  LYS51       0.1728
     37  C         26.9210    6.2860   13.5560 C.2    51  LYS51       0.2616
     38  O         26.7720    7.3890   13.0240 O.2    51  LYS51      -0.2715
     39  CB        25.0650    4.6590   13.3250 C.3    51  LYS51       0.0311
     40  CG        23.9310    3.8630   13.9350 C.3    51  LYS51       0.0038
     41  CD        23.3780    2.8420   12.9510 C.3    51  LYS51       0.0206
     42  CE        22.2830    2.0000   13.5940 C.3    51  LYS51       0.1093
     43  NZ        21.8130    0.9340   12.6780 N.3    51  LYS51      -0.1314
     44  N         28.0680    5.6140   13.5340 N.am   52  VAL52      -0.1964
     45  CA        29.2200    6.0960   12.7940 C.3    52  VAL52       0.1712
     46  C         29.2700    5.1230   11.6160 C.2    52  VAL52       0.2458
     47  O         28.7180    4.0290   11.6900 O.2    52  VAL52      -0.2730
     48  CB        30.5330    5.9860   13.6120 C.3    52  VAL52       0.0289
     49  CG1       30.4530    6.8660   14.8350 C.3    52  VAL52       0.0023
     50  CG2       30.7960    4.5180   14.0020 C.3    52  VAL52       0.0023
     51  N         29.9120    5.5080   10.5140 N.am   53  PRO53      -0.2727
     52  CA        30.5840    6.7910   10.3120 C.3    53  PRO53       0.1402
     53  C         29.6100    7.9050    9.9740 C.2    53  PRO53       0.2269
     54  O         28.4500    7.6550    9.6320 O.2    53  PRO53      -0.2865
     55  CB        31.5070    6.5050    9.1440 C.3    53  PRO53       0.0296
     56  CG        30.6700    5.5760    8.3130 C.3    53  PRO53       0.0237
     57  CD        30.1160    4.6210    9.3570 C.3    53  PRO53       0.0939
     58  N         26.0390    7.0370    5.9700 N.3    65  GLU65      -0.1231
     59  CA        26.0120    5.8410    5.1270 C.3    65  GLU65       0.1699
     60  C         27.3290    5.6960    4.3590 C.2    65  GLU65       0.2592
     61  O         27.6650    6.5210    3.5150 O.2    65  GLU65      -0.2718
     62  CB        24.8080    5.8870    4.1770 C.3    65  GLU65       0.0402
     63  CG        23.4530    5.9230    4.9090 C.3    65  GLU65       0.1161
     64  CD        23.1160    4.6080    5.6180 C.2    65  GLU65       0.3649
     65  OE1       22.3760    4.6490    6.6240 O.co2  65  GLU65      -0.2457
     66  OE2       23.5750    3.5300    5.1690 O.co2  65  GLU65      -0.2457
     67  N         28.0660    4.6310    4.6670 N.am   66  ASN66      -0.1961
     68  CA        29.3620    4.3720    4.0570 C.3    66  ASN66       0.1804
     69  C         29.4750    4.5080    2.5440 C.2    66  ASN66       0.2463
     70  O         30.4110    5.1280    2.0520 O.2    66  ASN66      -0.2730
     71  CB        29.8890    2.9960    4.4870 C.3    66  ASN66       0.1195
     72  CG        30.8360    3.0850    5.6740 C.2    66  ASN66       0.2630
     73  OD1       31.7200    3.9350    5.6970 O.2    66  ASN66      -0.2716
     74  ND2       30.6590    2.2080    6.6590 N.am   66  ASN66      -0.0877
     75  N         28.5330    3.9300    1.7800 N.am   67  PRO67      -0.2727
     76  CA        28.6670    4.0760    0.3260 C.3    67  PRO67       0.1402
     77  C         28.7310    5.5440   -0.1040 C.2    67  PRO67       0.2269
     78  O         29.5900    5.9300   -0.9030 O.2    67  PRO67      -0.2865
     79  CB        27.4210    3.3680   -0.2110 C.3    67  PRO67       0.0296
     80  CG        27.1440    2.3170    0.8550 C.3    67  PRO67       0.0237
     81  CD        27.3540    3.1130    2.1260 C.3    67  PRO67       0.0939
     82  N         27.4390   -3.0150    1.9320 N.3   102  GLY102     -0.1225
     83  CA        26.7190   -2.3740    3.0190 C.3   102  GLY102      0.1811
     84  C         25.3930   -3.0150    3.4030 C.2   102  GLY102      0.2280
     85  O         25.0560   -3.0840    4.5870 O.2   102  GLY102     -0.2866
     86  N         27.9040   -6.5930    5.3660 N.3   106  HIS106     -0.1226
     87  CA        27.9930   -5.9140    6.6560 C.3   106  HIS106      0.1752
     88  C         26.8500   -6.3280    7.5780 C.2   106  HIS106      0.2595
     89  O         27.0580   -6.5880    8.7660 O.2   106  HIS106     -0.2718
     90  CB        27.9800   -4.3920    6.4460 C.3   106  HIS106      0.0759
     91  CG        28.1610   -3.5950    7.7010 C.ar  106  HIS106      0.0818
     92  ND1       28.3220   -2.2240    7.6920 N.ar  106  HIS106     -0.2268
     93  CD2       28.1740   -3.9650    9.0050 C.ar  106  HIS106      0.1154
     94  CE1       28.4220   -1.7850    8.9340 C.ar  106  HIS106      0.1986
     95  NE2       28.3350   -2.8210    9.7500 N.ar  106  HIS106     -0.2212
     96  N         25.6460   -6.4090    7.0250 N.am  107  LYS107     -0.1980
     97  CA        24.4820   -6.7720    7.8190 C.3   107  LYS107      0.1596
     98  C         24.4800   -8.2000    8.3420 C.2   107  LYS107      0.2287
     99  O         23.8720   -8.4770    9.3780 O.2   107  LYS107     -0.2864
    100  CB        23.2050   -6.4770    7.0290 C.3   107  LYS107      0.0298
    101  CG        22.9590   -4.9770    6.8960 C.3   107  LYS107      0.0038
    102  CD        23.0010   -4.3240    8.2840 C.3   107  LYS107      0.0206
    103  CE        22.8100   -2.8140    8.2360 C.3   107  LYS107      0.1093
    104  NZ        22.6870   -2.2320    9.6090 N.3   107  LYS107     -0.1314
    105  N         25.9590   -8.2070   12.0240 N.3   110  VAL110     -0.1245
    106  CA        25.2000   -7.6160   13.1220 C.3   110  VAL110      0.1561
    107  C         24.8830   -8.5420   14.2960 C.2   110  VAL110      0.2260
    108  O         25.2830   -8.2680   15.4260 O.2   110  VAL110     -0.2867
    109  CB        23.8920   -6.9590   12.5930 C.3   110  VAL110      0.0252
    110  CG1       23.0300   -6.4760   13.7540 C.3   110  VAL110      0.0019
    111  CG2       24.2470   -5.7760   11.6850 C.3   110  VAL110      0.0019
    112  N         27.6820   -9.2980   16.5720 N.3   113  PHE113     -0.1241
    113  CA        28.2250   -8.1730   17.3260 C.3   113  PHE113      0.1605
    114  C         27.2440   -7.7240   18.4020 C.2   113  PHE113      0.2264
    115  O         27.5890   -6.9290   19.2750 O.2   113  PHE113     -0.2867
    116  CB        28.5120   -6.9980   16.3850 C.3   113  PHE113      0.0534
    117  CG        29.5730   -7.2790   15.3550 C.ar  113  PHE113     -0.0203
    118  CD1       29.6310   -6.5300   14.1790 C.ar  113  PHE113     -0.0042
    119  CD2       30.5220   -8.2790   15.5600 C.ar  113  PHE113     -0.0042
    120  CE1       30.6180   -6.7750   13.2280 C.ar  113  PHE113     -0.0003
    121  CE2       31.5090   -8.5300   14.6160 C.ar  113  PHE113     -0.0003
    122  CZ        31.5600   -7.7810   13.4510 C.ar  113  PHE113     -0.0000
    123  N         36.5010   -0.7860    1.7480 N.3   157  TYR157     -0.1241
    124  CA        35.2660   -1.1700    2.4310 C.3   157  TYR157      0.1605
    125  C         35.2680   -2.6840    2.7200 C.2   157  TYR157      0.2264
    126  O         35.0130   -3.1150    3.8570 O.2   157  TYR157     -0.2867
    127  CB        34.0810   -0.7780    1.5450 C.3   157  TYR157      0.0534
    128  CG        32.7160   -0.7020    2.2070 C.ar  157  TYR157     -0.0201
    129  CD1       32.5760   -0.6040    3.5900 C.ar  157  TYR157     -0.0009
    130  CD2       31.5620   -0.6770    1.4250 C.ar  157  TYR157     -0.0009
    131  CE1       31.3160   -0.4790    4.1800 C.ar  157  TYR157      0.0417
    132  CE2       30.3030   -0.5570    1.9940 C.ar  157  TYR157      0.0417
    133  CZ        30.1790   -0.4610    3.3630 C.ar  157  TYR157      0.1957
    134  OH        28.9180   -0.3610    3.8980 O.3   157  TYR157     -0.2866
    135  N         36.8320   -8.7250   10.4120 N.3   164  TRP164     -0.1241
    136  CA        35.9250   -9.1470   11.4830 C.3   164  TRP164      0.1605
    137  C         35.7260  -10.6450   11.7460 C.2   164  TRP164      0.2264
    138  O         35.6850  -11.0680   12.8970 O.2   164  TRP164     -0.2867
    139  CB        34.5390   -8.5320   11.2780 C.3   164  TRP164      0.0550
    140  CG        34.5230   -7.0340   11.1920 C.ar  164  TRP164      0.0003
    141  CD1       35.3850   -6.1590   11.8020 C.ar  164  TRP164      0.0946
    142  CD2       33.5520   -6.2310   10.5100 C.ar  164  TRP164      0.0152
    143  NE1       35.0050   -4.8620   11.5410 N.ar  164  TRP164     -0.2442
    144  CE2       33.8850   -4.8770   10.7530 C.ar  164  TRP164      0.0810
    145  CE3       32.4330   -6.5240    9.7160 C.ar  164  TRP164      0.0012
    146  CZ2       33.1330   -3.8120   10.2310 C.ar  164  TRP164      0.0191
    147  CZ3       31.6840   -5.4660    9.1940 C.ar  164  TRP164      0.0001
    148  CH2       32.0410   -4.1250    9.4570 C.ar  164  TRP164      0.0015
@<TRIPOS>BOND
     1    78    77    2
     2    79    76    1
     3    79    80    1
     4    77    76    1
     5    76    75    1
     6    80    81    1
     7   130   132   ar
     8   130   128   ar
     9   127   128    1
    10   127   124    1
    11   123   124    1
    12    75    81    1
    13    75    69   am
    14    82    83    1
    15   132   133   ar
    16    70    69    2
    17   128   129   ar
    18   124   125    1
    19    69    68    1
    20   125   126    2
    21    83    84    1
    22   133   134    1
    23   133   131   ar
    24    84    85    2
    25    61    60    2
    26   129   131   ar
    27    68    71    1
    28    68    67    1
    29    62    63    1
    30    62    59    1
    31    60    67   am
    32    60    59    1
    33    71    72    1
    34    63    64    1
    35    59    58    1
    36    66    64   ar
    37    86    87    1
    38    64    65   ar
    39    72    73    2
    40    72    74   am
    41    90    87    1
    42    90    91    1
    43    87    88    1
    44   101   100    1
    45   101   102    1
    46    96    88   am
    47    96    97    1
    48   100    97    1
    49    88    89    2
    50    92    91   ar
    51    92    94   ar
    52    91    93   ar
    53    97    98    1
    54   103   102    1
    55   103   104    1
    56    56    55    1
    57    56    57    1
    58    98    99    2
    59     9     8    2
    60    94    95   ar
    61    93    95   ar
    62    55    52    1
    63   147   148   ar
    64   147   145   ar
    65    57    51    1
    66   148   146   ar
    67     8     7    1
    68    54    53    2
    69    10     7    1
    70    10    11    1
    71   145   142   ar
    72    53    52    1
    73     7     6    1
    74   146   144   ar
    75    52    51    1
    76   135   136    1
    77   142   144   ar
    78   142   140   ar
    79    51    46   am
    80   144   143   ar
    81   140   139    1
    82   140   141   ar
    83   139   136    1
    84     4     3    2
    85     6     3   am
    86   136   137    1
    87   143   141   ar
    88    46    47    2
    89    46    45    1
    90   111   109    1
    91   137   138    2
    92     3     2    1
    93   105   106    1
    94   109   106    1
    95   109   110    1
    96    43    42    1
    97    45    44    1
    98    45    48    1
    99    41    42    1
   100    41    40    1
   101    38    37    2
   102   106   107    1
   103   120   122   ar
   104   120   118   ar
   105    39    40    1
   106    39    36    1
   107   122   121   ar
   108     2     1    1
   109     2     5    1
   110    44    37   am
   111    37    36    1
   112    48    50    1
   113    48    49    1
   114   118   117   ar
   115   107   108    2
   116    36    35    1
   117   121   119   ar
   118    35    33   am
   119   117   119   ar
   120   117   116    1
   121    31    32    1
   122    33    32    1
   123    33    34    2
   124   116   113    1
   125   112   113    1
   126   113   114    1
   127    18    17    1
   128    19    17    1
   129   114   115    2
   130    17    16    1
   131    16    13    1
   132    30    28    1
   133    28    27    2
   134    28    29    1
   135    27    26    1
   136    25    26    1
   137    25    24    1
   138    13    12    1
   139    13    14    1
   140    24    21    1
   141    21    22    1
   142    21    20    1
   143    15    14    2
   144    23    22    2
