@<TRIPOS>MOLECULE
tmp/1f2oA00.pdb
 141 135 0 0 0
SMALL
GASTEIGER

@<TRIPOS>ATOM
      1  N         17.4330    8.7270   48.0920 N.3    85  HIS85      -0.1241
      2  CA        16.2970    8.1120   48.7810 C.3    85  HIS85       0.1621
      3  C         15.1580    7.8610   47.8090 C.2    85  HIS85       0.2264
      4  O         14.8760    8.6680   46.9280 O.2    85  HIS85      -0.2867
      5  CB        15.8410    8.9390   50.0210 C.3    85  HIS85       0.0745
      6  CG        15.0930   10.2090   49.7030 C.ar   85  HIS85       0.0817
      7  ND1       13.7110   10.2760   49.7160 N.ar   85  HIS85      -0.2268
      8  CD2       15.5300   11.4710   49.4610 C.ar   85  HIS85       0.1154
      9  CE1       13.3150   11.5130   49.4970 C.ar   85  HIS85       0.1986
     10  NE2       14.3940   12.2600   49.3510 N.ar   85  HIS85      -0.2212
     11  N         11.1060   14.9600   44.1810 N.3    97  ASP97      -0.1239
     12  CA        11.6600   14.5600   45.5190 C.3    97  ASP97       0.1674
     13  C         11.1310   13.1310   45.8990 C.2    97  ASP97       0.2266
     14  O         10.0420   13.0220   46.4800 O.2    97  ASP97      -0.2867
     15  CB        11.1630   15.5520   46.6060 C.3    97  ASP97       0.1410
     16  CG        11.7120   15.2540   47.9180 C.2    97  ASP97       0.3668
     17  OD1       12.7270   14.5680   47.9670 O.co2  97  ASP97      -0.2456
     18  OD2       11.1130   15.7080   48.8780 O.co2  97  ASP97      -0.2456
     19  N         13.6170    8.0830   54.2430 N.3   131  GLU131     -0.1231
     20  CA        14.3970    9.3040   54.4600 C.3   131  GLU131      0.1699
     21  C         13.4480   10.4020   54.9720 C.2   131  GLU131      0.2592
     22  O         13.8710   11.2660   55.7690 O.2   131  GLU131     -0.2718
     23  CB        15.0160    9.7390   53.1140 C.3   131  GLU131      0.0402
     24  CG        15.9610   10.9730   53.2230 C.3   131  GLU131      0.1161
     25  CD        15.2580   12.3270   53.1310 C.2   131  GLU131      0.3649
     26  OE1       14.0910   12.4050   52.6900 O.co2 131  GLU131     -0.2457
     27  OE2       15.8790   13.3720   53.4630 O.co2 131  GLU131     -0.2457
     28  N         12.1810   10.3490   54.5590 N.am  132  GLU132     -0.1979
     29  CA        11.2620   11.4230   54.9650 C.3   132  GLU132      0.1602
     30  C         10.8470   11.3500   56.4280 C.2   132  GLU132      0.2287
     31  O         10.1800   12.2840   56.9060 O.2   132  GLU132     -0.2864
     32  CB        10.0060   11.4330   54.0680 C.3   132  GLU132      0.0415
     33  CG        10.3310   11.6800   52.5880 C.3   132  GLU132      0.1163
     34  CD        10.7180   13.1230   52.2300 C.2   132  GLU132      0.3649
     35  OE1       10.8930   14.0080   53.1100 O.co2 132  GLU132     -0.2457
     36  OE2       10.8380   13.3750   51.0010 O.co2 132  GLU132     -0.2457
     37  N         19.6470   14.0950   45.7250 N.3   160  ASP160     -0.1225
     38  CA        18.3260   14.2790   46.3430 C.3   160  ASP160      0.1805
     39  C         17.8020   15.6260   45.8240 C.2   160  ASP160      0.2597
     40  O         18.2650   16.7030   46.2630 O.2   160  ASP160     -0.2718
     41  CB        18.4870   14.2460   47.8930 C.3   160  ASP160      0.1424
     42  CG        17.1570   14.3580   48.6540 C.2   160  ASP160      0.3668
     43  OD1       16.1230   14.5070   47.9560 O.co2 160  ASP160     -0.2456
     44  OD2       17.1560   14.3290   49.9020 O.co2 160  ASP160     -0.2456
     45  N         16.8410   15.5170   44.8760 N.am  161  MET161     -0.1979
     46  CA        16.1570   16.6140   44.1490 C.3   161  MET161      0.1605
     47  C         17.1330   17.2450   43.1600 C.2   161  MET161      0.2287
     48  O         17.8700   18.2010   43.4970 O.2   161  MET161     -0.2864
     49  CB        15.6000   17.6890   45.1160 C.3   161  MET161      0.0413
     50  CG        14.4720   17.1120   46.0080 C.3   161  MET161      0.0598
     51  SD        13.8210   18.3700   47.1480 S.3   161  MET161     -0.1393
     52  CE        12.9010   19.3770   46.0190 C.3   161  MET161      0.0692
     53  N         27.4030   20.3020   46.8650 N.3   172  TYR172     -0.1241
     54  CA        27.6910   20.2480   48.2940 C.3   172  TYR172      0.1605
     55  C         29.1360   20.7180   48.5350 C.2   172  TYR172      0.2264
     56  O         30.0290   20.4520   47.7130 O.2   172  TYR172     -0.2867
     57  CB        27.6170   18.8250   48.8260 C.3   172  TYR172      0.0534
     58  CG        26.2290   18.1730   48.8800 C.ar  172  TYR172     -0.0201
     59  CD1       25.1470   18.6660   48.1440 C.ar  172  TYR172     -0.0009
     60  CD2       26.0430   17.0130   49.6420 C.ar  172  TYR172     -0.0009
     61  CE1       23.8980   18.0050   48.1530 C.ar  172  TYR172      0.0417
     62  CE2       24.8230   16.3460   49.6650 C.ar  172  TYR172      0.0417
     63  CZ        23.7550   16.8420   48.9220 C.ar  172  TYR172      0.1957
     64  OH        22.5460   16.1720   48.9670 O.3   172  TYR172     -0.2866
     65  N         25.8600   24.5500   48.2070 N.3   196  GLU196     -0.1245
     66  CA        24.5650   24.1320   48.7340 C.3   196  GLU196      0.1567
     67  C         24.3450   24.6630   50.1500 C.2   196  GLU196      0.2260
     68  O         25.1600   24.3900   51.0210 O.2   196  GLU196     -0.2867
     69  CB        24.5200   22.5960   48.7450 C.3   196  GLU196      0.0388
     70  CG        23.1270   21.9810   48.8270 C.3   196  GLU196      0.1160
     71  CD        22.3820   22.4000   50.0470 C.2   196  GLU196      0.3649
     72  OE1       22.9390   22.2550   51.1580 O.co2 196  GLU196     -0.2457
     73  OE2       21.2360   22.8800   49.9110 O.co2 196  GLU196     -0.2457
     74  N         20.6040   25.5020   51.3240 N.3   198  GLU198     -0.1231
     75  CA        19.2130   25.1700   51.6790 C.3   198  GLU198      0.1699
     76  C         18.9990   23.8540   52.4270 C.2   198  GLU198      0.2592
     77  O         18.3090   23.8340   53.4460 O.2   198  GLU198     -0.2718
     78  CB        18.3310   25.2020   50.4150 C.3   198  GLU198      0.0402
     79  CG        16.8670   24.7690   50.6290 C.3   198  GLU198      0.1161
     80  CD        16.0000   25.0860   49.4040 C.2   198  GLU198      0.3649
     81  OE1       16.5400   25.2390   48.3030 O.co2 198  GLU198     -0.2457
     82  OE2       14.7760   25.1920   49.5470 O.co2 198  GLU198     -0.2457
     83  N         19.5880   22.7590   51.9510 N.am  199  GLY199     -0.1957
     84  CA        19.3960   21.4780   52.6280 C.3   199  GLY199      0.1869
     85  C         20.2140   21.2230   53.8960 C.2   199  GLY199      0.2309
     86  O         19.7060   20.6020   54.8540 O.2   199  GLY199     -0.2863
     87  N         20.3910   17.8090   55.9240 N.3   202  ARG202     -0.1231
     88  CA        19.0860   17.1990   55.8920 C.3   202  ARG202      0.1694
     89  C         18.8640   16.2590   54.7010 C.2   202  ARG202      0.2592
     90  O         17.8510   16.3360   54.0280 O.2   202  ARG202     -0.2718
     91  CB        17.9940   18.2520   55.9510 C.3   202  ARG202      0.0321
     92  CG        17.8520   19.0240   57.2340 C.3   202  ARG202      0.0489
     93  CD        16.5610   19.8640   57.1770 C.3   202  ARG202      0.2205
     94  NE        16.2700   20.3500   55.8220 N.pl3 202  ARG202     -0.0865
     95  CZ        16.4110   21.6120   55.4180 C.cat 202  ARG202      0.5346
     96  NH1       16.8080   22.5500   56.2710 N.pl3 202  ARG202      0.1354
     97  NH2       16.1250   21.9420   54.1630 N.pl3 202  ARG202      0.1354
     98  N         19.8480   15.3940   54.4580 N.am  203  SER203     -0.1952
     99  CA        19.6380   14.3530   53.4450 C.3   203  SER203      0.1924
    100  C         20.5310   13.1710   53.8660 C.2   203  SER203      0.2314
    101  O         21.2170   13.2200   54.9120 O.2   203  SER203     -0.2863
    102  CB        19.9420   14.8230   52.0030 C.3   203  SER203      0.2116
    103  OG        19.5440   13.7730   51.1110 O.3   203  SER203     -0.2180
    104  N         22.2530   19.2690   43.9530 N.3   219  PHE219     -0.1241
    105  CA        20.8960   19.6710   44.3970 C.3   219  PHE219      0.1605
    106  C         20.4280   20.8050   43.5020 C.2   219  PHE219      0.2264
    107  O         21.2650   21.6340   43.0840 O.2   219  PHE219     -0.2867
    108  CB        21.0060   20.1580   45.8600 C.3   219  PHE219      0.0534
    109  CG        19.7360   20.7740   46.4370 C.ar  219  PHE219     -0.0203
    110  CD1       18.5530   20.0410   46.5070 C.ar  219  PHE219     -0.0042
    111  CD2       19.7650   22.0290   47.0570 C.ar  219  PHE219     -0.0042
    112  CE1       17.4270   20.5630   47.1960 C.ar  219  PHE219     -0.0003
    113  CE2       18.6420   22.5430   47.7490 C.ar  219  PHE219     -0.0003
    114  CZ        17.4830   21.8020   47.8100 C.ar  219  PHE219     -0.0000
    115  N         14.7650   23.6960   46.5520 N.3   222  ALA222     -0.1245
    116  CA        13.4320   23.2460   46.9730 C.3   222  ALA222      0.1562
    117  C         12.5190   24.4650   47.2430 C.2   222  ALA222      0.2260
    118  O         12.2470   25.2440   46.3100 O.2   222  ALA222     -0.2867
    119  CB        13.5630   22.2970   48.2140 C.3   222  ALA222      0.0290
    120  N          7.1320   21.2770   46.0570 N.3   246  TYR246     -0.1227
    121  CA         7.8740   20.5440   47.0820 C.3   246  TYR246      0.1736
    122  C          6.8980   19.9020   48.1110 C.2   246  TYR246      0.2595
    123  O          6.0460   20.6060   48.7070 O.2   246  TYR246     -0.2718
    124  CB         8.8080   21.5300   47.7670 C.3   246  TYR246      0.0548
    125  CG         9.6030   20.9340   48.9040 C.ar  246  TYR246     -0.0200
    126  CD1       10.4170   19.7990   48.7050 C.ar  246  TYR246     -0.0009
    127  CD2        9.5900   21.5350   50.1620 C.ar  246  TYR246     -0.0009
    128  CE1       11.2060   19.2820   49.7500 C.ar  246  TYR246      0.0417
    129  CE2       10.3830   21.0030   51.2150 C.ar  246  TYR246      0.0417
    130  CZ        11.1810   19.8740   50.9980 C.ar  246  TYR246      0.1957
    131  OH        11.8790   19.2840   52.0930 O.3   246  TYR246     -0.2866
    132  N          7.0270   18.5880   48.3040 N.am  247  HIS247     -0.1975
    133  CA         6.1700   17.8180   49.2310 C.3   247  HIS247      0.1656
    134  C          4.6620   17.9880   48.9830 C.2   247  HIS247      0.2291
    135  O          3.8330   17.7570   49.8830 O.2   247  HIS247     -0.2864
    136  CB         6.4990   18.1990   50.6930 C.3   247  HIS247      0.0771
    137  CG         7.8030   17.6230   51.1520 C.ar  247  HIS247      0.0820
    138  ND1        8.2800   17.7770   52.4300 N.ar  247  HIS247     -0.2267
    139  CD2        8.7270   16.8800   50.4860 C.ar  247  HIS247      0.1154
    140  CE1        9.4370   17.1430   52.5500 C.ar  247  HIS247      0.1986
    141  NE2        9.7300   16.5910   51.3810 N.ar  247  HIS247     -0.2212
@<TRIPOS>BOND
     1   107   106    2
     2    47    48    2
     3    47    46    1
     4   106   105    1
     5   104   105    1
     6    46    45    1
     7    46    49    1
     8    11    12    1
     9   105   108    1
    10    45    39   am
    11    49    50    1
    12    12    13    1
    13    12    15    1
    14    37    38    1
    15    39    40    2
    16    39    38    1
    17   108   109    1
    18    13    14    2
    19    50    51    1
    20    52    51    1
    21   120   121    1
    22   118   117    2
    23    38    41    1
    24   109   110   ar
    25   109   111   ar
    26   110   112   ar
    27   115   116    1
    28    15    16    1
    29    53    54    1
    30     4     3    2
    31   116   117    1
    32   116   119    1
    33   111   113   ar
    34   121   124    1
    35   121   122    1
    36   112   114   ar
    37    56    55    2
    38   113   114   ar
    39   124   125    1
    40     3     2    1
    41    41    42    1
    42    16    17   ar
    43    16    18   ar
    44    43    42   ar
    45     1     2    1
    46   122   132   am
    47   122   123    2
    48    59    61   ar
    49    59    58   ar
    50    61    63   ar
    51    65    66    1
    52    54    55    1
    53    54    57    1
    54    81    80   ar
    55   132   133    1
    56    42    44   ar
    57   126   125   ar
    58   126   128   ar
    59    66    69    1
    60    66    67    1
    61    69    70    1
    62     2     5    1
    63    57    58    1
    64    70    71    1
    65    58    60   ar
    66   125   127   ar
    67    63    64    1
    68    63    62   ar
    69   134   133    1
    70   134   135    2
    71   133   136    1
    72    10     8   ar
    73    10     9   ar
    74    80    82   ar
    75    80    79    1
    76     8     6   ar
    77     9     7   ar
    78    60    62   ar
    79     6     7   ar
    80     6     5    1
    81   128   130   ar
    82    73    71   ar
    83    71    72   ar
    84    67    68    2
    85   127   129   ar
    86    78    79    1
    87    78    75    1
    88   139   137   ar
    89   139   141   ar
    90   136   137    1
    91   130   129   ar
    92   130   131    1
    93    36    34   ar
    94   103   102    1
    95   137   138   ar
    96    74    75    1
    97   141   140   ar
    98    75    76    1
    99    83    76   am
   100    83    84    1
   101   102    99    1
   102    34    33    1
   103    34    35   ar
   104    76    77    2
   105   138   140   ar
   106    33    32    1
   107    84    85    1
   108    26    25   ar
   109    23    24    1
   110    23    20    1
   111    25    24    1
   112    25    27   ar
   113    99   100    1
   114    99    98    1
   115   100   101    2
   116    85    86    2
   117    90    89    2
   118    32    29    1
   119    97    95    1
   120    19    20    1
   121    98    89   am
   122    20    21    1
   123    28    29    1
   124    28    21   am
   125    89    88    1
   126    29    30    1
   127    21    22    2
   128    95    94    2
   129    95    96    1
   130    94    93    1
   131    88    87    1
   132    88    91    1
   133    91    92    1
   134    30    31    2
   135    93    92    1
