@<TRIPOS>MOLECULE
tmp/1f2pA00.pdb
 142 137 0 0 0
SMALL
GASTEIGER

@<TRIPOS>ATOM
      1  N         17.3430    8.8450   48.1310 N.3    85  HIS85      -0.1241
      2  CA        16.2010    8.2270   48.8080 C.3    85  HIS85       0.1621
      3  C         15.0440    7.9810   47.8070 C.2    85  HIS85       0.2264
      4  O         14.7440    8.8300   46.9270 O.2    85  HIS85      -0.2867
      5  CB        15.7440    9.0510   50.0570 C.3    85  HIS85       0.0745
      6  CG        15.0080   10.3280   49.7480 C.ar   85  HIS85       0.0817
      7  ND1       13.6280   10.4160   49.7550 N.ar   85  HIS85      -0.2268
      8  CD2       15.4640   11.5810   49.5140 C.ar   85  HIS85       0.1154
      9  CE1       13.2620   11.6660   49.5440 C.ar   85  HIS85       0.1986
     10  NE2       14.3580   12.3950   49.4030 N.ar   85  HIS85      -0.2212
     11  N         11.0460   15.1070   44.2770 N.3    97  ASP97      -0.1239
     12  CA        11.5290   14.6910   45.6200 C.3    97  ASP97       0.1674
     13  C         10.9650   13.2990   45.9570 C.2    97  ASP97       0.2266
     14  O          9.8810   13.1930   46.5230 O.2    97  ASP97      -0.2867
     15  CB        11.0230   15.7220   46.6560 C.3    97  ASP97       0.1410
     16  CG        11.4980   15.4480   48.0350 C.2    97  ASP97       0.3668
     17  OD1       12.4270   14.6560   48.1790 O.co2  97  ASP97      -0.2456
     18  OD2       10.9530   16.0550   48.9680 O.co2  97  ASP97      -0.2456
     19  N         13.4500    8.1580   54.2820 N.3   131  GLU131     -0.1231
     20  CA        14.2340    9.3780   54.5070 C.3   131  GLU131      0.1699
     21  C         13.3170   10.4840   55.0640 C.2   131  GLU131      0.2592
     22  O         13.7610   11.3330   55.8660 O.2   131  GLU131     -0.2718
     23  CB        14.8670    9.8540   53.1660 C.3   131  GLU131      0.0402
     24  CG        15.8020   11.0600   53.2900 C.3   131  GLU131      0.1161
     25  CD        15.0810   12.3830   53.2340 C.2   131  GLU131      0.3649
     26  OE1       13.9030   12.4220   52.7720 O.co2 131  GLU131     -0.2457
     27  OE2       15.7010   13.4100   53.6460 O.co2 131  GLU131     -0.2457
     28  N         12.0580   10.5070   54.6160 N.am  132  GLU132     -0.1979
     29  CA        11.1000   11.5410   55.0780 C.3   132  GLU132      0.1602
     30  C         10.7240   11.4120   56.5710 C.2   132  GLU132      0.2287
     31  O         10.1560   12.3590   57.1580 O.2   132  GLU132     -0.2864
     32  CB         9.8260   11.5330   54.2040 C.3   132  GLU132      0.0415
     33  CG        10.1040   11.8490   52.6900 C.3   132  GLU132      0.1163
     34  CD        10.4760   13.3040   52.3840 C.2   132  GLU132      0.3649
     35  OE1       10.7360   14.1150   53.3190 O.co2 132  GLU132     -0.2457
     36  OE2       10.5300   13.6310   51.1540 O.co2 132  GLU132     -0.2457
     37  N         19.5610   14.2040   45.8030 N.3   160  ASP160     -0.1225
     38  CA        18.2150   14.4000   46.4060 C.3   160  ASP160      0.1805
     39  C         17.6850   15.7670   45.9120 C.2   160  ASP160      0.2597
     40  O         18.1690   16.8390   46.3580 O.2   160  ASP160     -0.2718
     41  CB        18.3870   14.3410   47.9390 C.3   160  ASP160      0.1424
     42  CG        17.1050   14.5050   48.6970 C.2   160  ASP160      0.3668
     43  OD1       16.0640   14.7330   48.0490 O.co2 160  ASP160     -0.2456
     44  OD2       17.1420   14.4360   49.9450 O.co2 160  ASP160     -0.2456
     45  N         16.7270   15.7030   44.9590 N.am  161  MET161     -0.1979
     46  CA        16.0820   16.8470   44.2520 C.3   161  MET161      0.1605
     47  C         17.0440   17.5020   43.2350 C.2   161  MET161      0.2287
     48  O         17.7760   18.4450   43.5760 O.2   161  MET161     -0.2864
     49  CB        15.5340   17.9120   45.2430 C.3   161  MET161      0.0413
     50  CG        14.3650   17.3880   46.1130 C.3   161  MET161      0.0598
     51  SD        13.6490   18.5640   47.3140 S.3   161  MET161     -0.1393
     52  CE        12.7280   19.6450   46.1260 C.3   161  MET161      0.0692
     53  N         27.4480   20.3540   46.8590 N.3   172  TYR172     -0.1241
     54  CA        27.8190   20.2780   48.2850 C.3   172  TYR172      0.1605
     55  C         29.3050   20.7130   48.4850 C.2   172  TYR172      0.2264
     56  O         30.1600   20.3580   47.6720 O.2   172  TYR172     -0.2867
     57  CB        27.6830   18.8470   48.8110 C.3   172  TYR172      0.0534
     58  CG        26.2830   18.2040   48.8790 C.ar  172  TYR172     -0.0201
     59  CD1       25.1680   18.7500   48.2210 C.ar  172  TYR172     -0.0009
     60  CD2       26.1070   16.9940   49.5550 C.ar  172  TYR172     -0.0009
     61  CE1       23.9090   18.0880   48.2430 C.ar  172  TYR172      0.0417
     62  CE2       24.8780   16.3390   49.5620 C.ar  172  TYR172      0.0417
     63  CZ        23.7950   16.8830   48.9150 C.ar  172  TYR172      0.1957
     64  OH        22.5930   16.1880   48.9490 O.3   172  TYR172     -0.2866
     65  N         25.9840   24.6010   48.3600 N.3   196  GLU196     -0.1245
     66  CA        24.7000   24.1220   48.8530 C.3   196  GLU196      0.1567
     67  C         24.5020   24.4650   50.3280 C.2   196  GLU196      0.2260
     68  O         25.2730   24.0150   51.1930 O.2   196  GLU196     -0.2867
     69  CB        24.6120   22.5990   48.6680 C.3   196  GLU196      0.0388
     70  CG        23.2150   22.0230   48.8050 C.3   196  GLU196      0.1160
     71  CD        22.6050   22.2930   50.1620 C.2   196  GLU196      0.3649
     72  OE1       23.1420   21.7580   51.1710 O.co2 196  GLU196     -0.2457
     73  OE2       21.5920   23.0370   50.2120 O.co2 196  GLU196     -0.2457
     74  N         20.7460   25.6410   51.5290 N.3   198  GLU198     -0.1245
     75  CA        19.3160   25.3920   51.8110 C.3   198  GLU198      0.1567
     76  C         19.0950   23.9800   52.3270 C.2   198  GLU198      0.2260
     77  O         18.5180   23.8970   53.4320 O.2   198  GLU198     -0.2867
     78  CB        18.4330   25.6110   50.5630 C.3   198  GLU198      0.0388
     79  CG        16.9110   25.2040   50.7680 C.3   198  GLU198      0.1160
     80  CD        16.0180   25.3950   49.5010 C.2   198  GLU198      0.3649
     81  OE1       16.5270   25.3140   48.3900 O.co2 198  GLU198     -0.2457
     82  OE2       14.7980   25.6120   49.6060 O.co2 198  GLU198     -0.2457
     83  N         20.6220   17.9440   55.9120 N.3   199  ARG199     -0.1231
     84  CA        19.2650   17.3340   55.9210 C.3   199  ARG199      0.1694
     85  C         18.9880   16.3420   54.7610 C.2   199  ARG199      0.2592
     86  O         17.9560   16.4180   54.1080 O.2   199  ARG199     -0.2718
     87  CB        18.2200   18.4310   55.9110 C.3   199  ARG199      0.0321
     88  CG        16.8190   17.9130   55.8790 C.3   199  ARG199      0.0489
     89  CD        15.8560   19.0280   55.7640 C.3   199  ARG199      0.2205
     90  NE        15.8900   19.8470   54.5880 N.pl3 199  ARG199     -0.0865
     91  CZ        15.4720   19.5210   53.3670 C.cat 199  ARG199      0.5346
     92  NH1       14.9610   18.2900   53.1810 N.pl3 199  ARG199      0.1354
     93  NH2       15.5040   20.3510   52.3310 N.pl3 199  ARG199      0.1354
     94  N         19.9410   15.4580   54.4830 N.am  200  SER200     -0.1952
     95  CA        19.7500   14.4040   53.5050 C.3   200  SER200      0.1924
     96  C         20.5910   13.1760   53.8970 C.2   200  SER200      0.2314
     97  O         21.3070   13.1640   54.9120 O.2   200  SER200     -0.2863
     98  CB        20.0530   14.8490   52.0370 C.3   200  SER200      0.2116
     99  OG        19.4480   13.8810   51.1730 O.3   200  SER200     -0.2180
    100  N         23.3540   11.9070   53.0310 N.3   202  HIS202     -0.1241
    101  CA        24.8170   11.8900   53.1600 C.3   202  HIS202      0.1621
    102  C         25.2010   12.1670   54.6440 C.2   202  HIS202      0.2264
    103  O         26.3140   11.8630   55.0630 O.2   202  HIS202     -0.2867
    104  CB        25.4760   12.9790   52.2820 C.3   202  HIS202      0.0745
    105  CG        24.9910   14.3670   52.5900 C.ar  202  HIS202      0.0817
    106  ND1       23.6610   14.7130   52.5480 N.ar  202  HIS202     -0.2268
    107  CD2       25.6570   15.4910   52.9520 C.ar  202  HIS202      0.1154
    108  CE1       23.5220   15.9890   52.8770 C.ar  202  HIS202      0.1986
    109  NE2       24.7230   16.4870   53.1290 N.ar  202  HIS202     -0.2212
    110  N         22.1910   19.4430   44.0850 N.3   216  PHE216     -0.1241
    111  CA        20.8370   19.8730   44.5450 C.3   216  PHE216      0.1605
    112  C         20.3960   21.0560   43.6860 C.2   216  PHE216      0.2264
    113  O         21.2360   21.9010   43.3150 O.2   216  PHE216     -0.2867
    114  CB        20.9490   20.2630   46.0400 C.3   216  PHE216      0.0534
    115  CG        19.7000   20.9010   46.6560 C.ar  216  PHE216     -0.0203
    116  CD1       18.4780   20.2190   46.6890 C.ar  216  PHE216     -0.0042
    117  CD2       19.8010   22.1430   47.3060 C.ar  216  PHE216     -0.0042
    118  CE1       17.3790   20.7560   47.3630 C.ar  216  PHE216     -0.0003
    119  CE2       18.7030   22.7110   47.9980 C.ar  216  PHE216     -0.0003
    120  CZ        17.5000   22.0270   48.0310 C.ar  216  PHE216     -0.0000
    121  N          6.9130   21.5280   46.3320 N.3   243  TYR243     -0.1227
    122  CA         7.6560   20.7860   47.3450 C.3   243  TYR243      0.1736
    123  C          6.7150   20.1440   48.3540 C.2   243  TYR243      0.2595
    124  O          5.8920   20.8410   48.9810 O.2   243  TYR243     -0.2718
    125  CB         8.6570   21.7410   48.0330 C.3   243  TYR243      0.0548
    126  CG         9.5030   21.1140   49.1270 C.ar  243  TYR243     -0.0200
    127  CD1       10.2500   19.9600   48.8950 C.ar  243  TYR243     -0.0009
    128  CD2        9.6130   21.7200   50.3630 C.ar  243  TYR243     -0.0009
    129  CE1       11.0990   19.4290   49.8810 C.ar  243  TYR243      0.0417
    130  CE2       10.4680   21.1980   51.3710 C.ar  243  TYR243      0.0417
    131  CZ        11.1990   20.0640   51.1220 C.ar  243  TYR243      0.1957
    132  OH        12.0410   19.5470   52.1020 O.3   243  TYR243     -0.2866
    133  N          6.8610   18.8160   48.5150 N.am  244  HIS244     -0.1975
    134  CA         6.0360   17.9950   49.4330 C.3   244  HIS244      0.1656
    135  C          4.5050   18.1090   49.1760 C.2   244  HIS244      0.2291
    136  O          3.6910   17.8800   50.1060 O.2   244  HIS244     -0.2864
    137  CB         6.3480   18.3640   50.8940 C.3   244  HIS244      0.0771
    138  CG         7.6750   17.8640   51.3700 C.ar  244  HIS244      0.0820
    139  ND1        8.1630   18.1300   52.6380 N.ar  244  HIS244     -0.2267
    140  CD2        8.6010   17.0780   50.7650 C.ar  244  HIS244      0.1154
    141  CE1        9.3250   17.5170   52.8020 C.ar  244  HIS244      0.1986
    142  NE2        9.6150   16.8750   51.6800 N.ar  244  HIS244     -0.2212
@<TRIPOS>BOND
     1    47    48    2
     2    47    46    1
     3   113   112    2
     4   112   111    1
     5   110   111    1
     6    46    45    1
     7    46    49    1
     8    11    12    1
     9   111   114    1
    10    45    39   am
    11    49    50    1
    12    12    13    1
    13    12    15    1
    14    37    38    1
    15    39    40    2
    16    39    38    1
    17    13    14    2
    18   114   115    1
    19    50    51    1
    20    52    51    1
    21   121   122    1
    22    38    41    1
    23    15    16    1
    24   115   116   ar
    25   115   117   ar
    26   116   118   ar
    27    53    54    1
    28     4     3    2
    29   117   119   ar
    30   122   125    1
    31   122   123    1
    32   118   120   ar
    33    56    55    2
    34     3     2    1
    35    41    42    1
    36   119   120   ar
    37   125   126    1
    38    16    17   ar
    39    16    18   ar
    40    43    42   ar
    41     1     2    1
    42    59    61   ar
    43    59    58   ar
    44    61    63   ar
    45    54    55    1
    46    54    57    1
    47   123   133   am
    48   123   124    2
    49    65    66    1
    50    81    80   ar
    51   133   134    1
    52    69    70    1
    53    69    66    1
    54    42    44   ar
    55    70    71    1
    56     2     5    1
    57    57    58    1
    58    66    67    1
    59    58    60   ar
    60   127   126   ar
    61   127   129   ar
    62    63    64    1
    63    63    62   ar
    64   126   128   ar
    65   135   134    1
    66   135   136    2
    67    10     8   ar
    68    10     9   ar
    69   134   137    1
    70    80    82   ar
    71    80    79    1
    72     8     6   ar
    73     9     7   ar
    74    60    62   ar
    75     6     7   ar
    76     6     5    1
    77   129   131   ar
    78    71    73   ar
    79    71    72   ar
    80    67    68    2
    81   128   130   ar
    82    78    79    1
    83    78    75    1
    84   140   138   ar
    85   140   142   ar
    86   137   138    1
    87   131   130   ar
    88   131   132    1
    89    36    34   ar
    90    99    98    1
    91   138   139   ar
    92    74    75    1
    93   142   141   ar
    94    75    76    1
    95    98    95    1
    96   104   105    1
    97   104   101    1
    98    76    77    2
    99    93    91    1
   100    34    33    1
   101    34    35   ar
   102   106   105   ar
   103   106   108   ar
   104   105   107   ar
   105   139   141   ar
   106    33    32    1
   107    26    25   ar
   108   108   109   ar
   109   107   109   ar
   110   100   101    1
   111   101   102    1
   112    23    24    1
   113    23    20    1
   114    92    91    1
   115    25    24    1
   116    25    27   ar
   117    91    90    2
   118    95    96    1
   119    95    94    1
   120    96    97    2
   121    86    85    2
   122    32    29    1
   123    19    20    1
   124    94    85   am
   125    20    21    1
   126    90    89    1
   127    28    21   am
   128    28    29    1
   129   102   103    2
   130    85    84    1
   131    21    22    2
   132    29    30    1
   133    89    88    1
   134    88    87    1
   135    87    84    1
   136    83    84    1
   137    30    31    2
