@<TRIPOS>MOLECULE
tmp/1f2uA00.pdb
 101 96 0 0 0
SMALL
GASTEIGER

@<TRIPOS>ATOM
      1  N          1.7000    5.5320  -15.4150 N.3    12  ARG12      -0.1231
      2  CA         2.2070    5.5880  -14.0500 C.3    12  ARG12       0.1694
      3  C          3.4890    6.4100  -14.0060 C.2    12  ARG12       0.2592
      4  O          3.4850    7.5610  -14.4010 O.2    12  ARG12      -0.2718
      5  CB         2.4400    4.1770  -13.4950 C.3    12  ARG12       0.0321
      6  CG         1.1890    3.3140  -13.4190 C.3    12  ARG12       0.0489
      7  CD         1.4520    2.0450  -12.6120 C.3    12  ARG12       0.2205
      8  NE         0.5570    2.0040  -11.4680 N.pl3  12  ARG12      -0.0865
      9  CZ         0.9240    2.0230  -10.1920 C.cat  12  ARG12       0.5346
     10  NH1        2.2010    2.0880   -9.8220 N.pl3  12  ARG12       0.1354
     11  NH2       -0.0150    2.0140   -9.2710 N.pl3  12  ARG12       0.1354
     12  N          4.5870    5.8300  -13.5440 N.am   13  SER13      -0.1952
     13  CA         5.8530    6.5580  -13.4620 C.3    13  SER13       0.1924
     14  C          6.5530    6.7320  -14.8150 C.2    13  SER13       0.2314
     15  O          7.5740    7.4290  -14.9230 O.2    13  SER13      -0.2863
     16  CB         6.8120    5.8280  -12.5190 C.3    13  SER13       0.2116
     17  OG         7.1730    4.5590  -13.0460 O.3    13  SER13      -0.2180
     18  N         12.0790    0.0830   -4.8620 N.3    32  ASN32      -0.1225
     19  CA        10.6610    0.2770   -4.6250 C.3    32  ASN32       0.1785
     20  C         10.3390    1.6530   -5.2090 C.2    32  ASN32       0.2598
     21  O         11.1020    2.6030   -5.0170 O.2    32  ASN32      -0.2718
     22  CB        10.3390    0.2990   -3.1370 C.3    32  ASN32       0.1169
     23  CG        10.7220   -0.9790   -2.4270 C.2    32  ASN32       0.2627
     24  OD1       10.5540   -2.0870   -2.9500 O.2    32  ASN32      -0.2716
     25  ND2       11.2220   -0.8370   -1.2220 N.am   32  ASN32      -0.0877
     26  N          9.2260    1.7490   -5.9260 N.am   33  GLY33      -0.1942
     27  CA         8.8110    3.0140   -6.5050 C.3    33  GLY33       0.2014
     28  C          9.4180    3.4100   -7.8480 C.2    33  GLY33       0.2640
     29  O          9.0810    4.4690   -8.3750 O.2    33  GLY33      -0.2714
     30  N         10.2540    2.5490   -8.4350 N.am   34  SER34      -0.1935
     31  CA        10.9440    2.8840   -9.6740 C.3    34  SER34       0.2055
     32  C         10.2210    2.7130  -11.0090 C.2    34  SER34       0.2644
     33  O         10.4940    3.4680  -11.9450 O.2    34  SER34      -0.2714
     34  CB        12.2840    2.1510   -9.7270 C.3    34  SER34       0.2130
     35  OG        12.1200    0.7390   -9.7780 O.3    34  SER34      -0.2179
     36  N          9.3150    1.7510  -11.1160 N.am   35  GLY35      -0.1939
     37  CA         8.6030    1.5580  -12.3710 C.3    35  GLY35       0.2014
     38  C          8.4990    0.1180  -12.8740 C.2    35  GLY35       0.2639
     39  O          7.8350   -0.1360  -13.8860 O.2    35  GLY35      -0.2714
     40  N          9.1340   -0.8230  -12.1690 N.am   36  LYS36      -0.1963
     41  CA         9.1220   -2.2280  -12.5640 C.3    36  LYS36       0.1728
     42  C          7.7470   -2.7860  -12.9110 C.2    36  LYS36       0.2617
     43  O          7.4930   -3.1680  -14.0530 O.2    36  LYS36      -0.2715
     44  CB         9.7250   -3.0730  -11.4590 C.3    36  LYS36       0.0311
     45  CG        11.2320   -2.9490  -11.3290 C.3    36  LYS36       0.0038
     46  CD        11.7210   -3.6590  -10.0810 C.3    36  LYS36       0.0206
     47  CE        11.1130   -3.0240   -8.8230 C.3    36  LYS36       0.1093
     48  NZ        11.5800   -3.7160   -7.5880 N.3    36  LYS36      -0.1314
     49  N          6.8690   -2.8440  -11.9140 N.am   37  SER37      -0.1936
     50  CA         5.5210   -3.3830  -12.1060 C.3    37  SER37       0.2055
     51  C          4.7140   -2.5370  -13.0830 C.2    37  SER37       0.2643
     52  O          3.8590   -3.0530  -13.8050 O.2    37  SER37      -0.2714
     53  CB         4.7480   -3.4540  -10.7690 C.3    37  SER37       0.2130
     54  OG         5.3900   -4.2720   -9.7900 O.3    37  SER37      -0.2179
     55  N          4.9830   -1.2400  -13.0970 N.am   38  SER38      -0.1949
     56  CA         4.2460   -0.3380  -13.9730 C.3    38  SER38       0.1924
     57  C          4.3980   -0.7430  -15.4250 C.2    38  SER38       0.2314
     58  O          3.4190   -0.7820  -16.1700 O.2    38  SER38      -0.2863
     59  CB         4.7060    1.1110  -13.7540 C.3    38  SER38       0.2116
     60  OG         4.3410    1.5700  -12.4530 O.3    38  SER38      -0.2180
     61  N         -6.8870    6.0710  -13.8280 N.3    60  GLU60      -0.1245
     62  CA        -5.8600    6.0920  -12.7960 C.3    60  GLU60       0.1567
     63  C         -4.4450    5.8290  -13.3220 C.2    60  GLU60       0.2260
     64  O         -3.4750    6.2710  -12.7100 O.2    60  GLU60      -0.2867
     65  CB        -6.2170    5.0910  -11.6790 C.3    60  GLU60       0.0388
     66  CG        -6.8910    5.7220  -10.4460 C.3    60  GLU60       0.1160
     67  CD        -7.7610    4.7390   -9.6400 C.2    60  GLU60       0.3649
     68  OE1       -7.2870    3.6260   -9.3190 O.co2  60  GLU60      -0.2457
     69  OE2       -8.9240    5.0970   -9.3190 O.co2  60  GLU60      -0.2457
     70  N         -3.0800    6.9480  -16.1840 N.3    62  THR62      -0.1203
     71  CA        -2.5840    8.0310  -17.0240 C.3    62  THR62       0.1994
     72  C         -1.6560    8.8710  -16.1530 C.2    62  THR62       0.2618
     73  O         -2.1010    9.4410  -15.1610 O.2    62  THR62      -0.2717
     74  CB        -3.7310    8.9580  -17.5150 C.3    62  THR62       0.1784
     75  OG1       -4.9870    8.2610  -17.4680 O.3    62  THR62      -0.2211
     76  CG2       -3.4620    9.4120  -18.9530 C.3    62  THR62       0.0376
     77  N         -0.3770    8.9450  -16.5150 N.am   63  LYS63      -0.1965
     78  CA         0.5800    9.7200  -15.7400 C.3    63  LYS63       0.1728
     79  C         -0.0460   11.0450  -15.3200 C.2    63  LYS63       0.2616
     80  O         -0.6840   11.7210  -16.1190 O.2    63  LYS63      -0.2715
     81  CB         1.8540    9.9490  -16.5540 C.3    63  LYS63       0.0311
     82  CG         3.0150   10.4610  -15.7230 C.3    63  LYS63       0.0038
     83  CD         4.3540   10.0950  -16.3400 C.3    63  LYS63       0.0206
     84  CE         5.4940   10.4200  -15.3710 C.3    63  LYS63       0.1093
     85  NZ         5.4580   11.8210  -14.8330 N.3    63  LYS63      -0.1314
     86  N          0.1330   11.4100  -14.0570 N.am   64  VAL64      -0.1977
     87  CA        -0.4510   12.6310  -13.5140 C.3    64  VAL64       0.1596
     88  C         -0.5060   13.8360  -14.4590 C.2    64  VAL64       0.2287
     89  O         -1.5870   14.2200  -14.9250 O.2    64  VAL64      -0.2864
     90  CB         0.2590   13.0490  -12.2000 C.3    64  VAL64       0.0276
     91  CG1       -0.3470   14.3330  -11.6500 C.3    64  VAL64       0.0022
     92  CG2        0.1140   11.9400  -11.1740 C.3    64  VAL64       0.0022
     93  N          3.0100   -9.2690   -9.0710 N.3   140  GLN140     -0.1245
     94  CA         3.6060   -9.1160   -7.7640 C.3   140  GLN140      0.1566
     95  C          2.6090   -9.5830   -6.7030 C.2   140  GLN140      0.2260
     96  O          1.4290   -9.2480   -6.7540 O.2   140  GLN140     -0.2867
     97  CB         3.9670   -7.6420   -7.5700 C.3   140  GLN140      0.0367
     98  CG         4.7970   -7.3370   -6.3470 C.3   140  GLN140      0.0905
     99  CD         5.4910   -5.9900   -6.4590 C.2   140  GLN140      0.2608
    100  OE1        5.1810   -5.2020   -7.3360 O.2   140  GLN140     -0.2717
    101  NE2        6.4180   -5.7240   -5.5550 N.am  140  GLN140     -0.0878
@<TRIPOS>BOND
     1    76    74    1
     2    74    75    1
     3    74    71    1
     4    71    70    1
     5    71    72    1
     6    81    78    1
     7    81    82    1
     8    77    72   am
     9    77    78    1
    10    83    82    1
    11    83    84    1
    12    58    57    2
    13    72    73    2
    14    80    79    2
    15    78    79    1
    16    57    56    1
    17     1     2    1
    18    84    85    1
    19    79    86   am
    20    89    88    2
    21    15    14    2
    22    14    13    1
    23    88    87    1
    24     4     3    2
    25    86    87    1
    26    43    42    2
    27     2     3    1
    28     2     5    1
    29     3    12   am
    30    56    59    1
    31    56    55    1
    32    39    38    2
    33    61    62    1
    34    52    51    2
    35    59    60    1
    36    12    13    1
    37    87    90    1
    38     5     6    1
    39    13    16    1
    40     6     7    1
    41    63    62    1
    42    63    64    2
    43    55    51   am
    44    51    50    1
    45    17    16    1
    46    42    41    1
    47    42    49   am
    48    38    37    1
    49    38    40   am
    50    62    65    1
    51     7     8    1
    52    41    40    1
    53    41    44    1
    54    37    36    1
    55    90    91    1
    56    90    92    1
    57    50    49    1
    58    50    53    1
    59    33    32    2
    60    65    66    1
    61     8     9    2
    62    44    45    1
    63    45    46    1
    64    36    32   am
    65    32    31    1
    66    53    54    1
    67    66    67    1
    68     9    10    1
    69     9    11    1
    70    46    47    1
    71    35    34    1
    72    34    31    1
    73    31    30    1
    74    67    69   ar
    75    67    68   ar
    76    93    94    1
    77    47    48    1
    78    30    28   am
    79    29    28    2
    80    28    27    1
    81    94    97    1
    82    94    95    1
    83    97    98    1
    84   100    99    2
    85    96    95    2
    86    27    26    1
    87    99    98    1
    88    99   101   am
    89    26    20   am
    90    20    21    2
    91    20    19    1
    92    18    19    1
    93    19    22    1
    94    22    23    1
    95    24    23    2
    96    23    25   am
