@<TRIPOS>MOLECULE
tmp/1f2uD00.pdb
 104 104 0 0 0
SMALL
GASTEIGER

@<TRIPOS>ATOM
      1  N          8.3160   11.4590   -0.0350 N.3    23  LYS23      -0.1231
      2  CA         7.6530   11.1580   -1.3000 C.3    23  LYS23       0.1693
      3  C          6.1420   11.2350   -1.1960 C.2    23  LYS23       0.2592
      4  O          5.4680   11.5840   -2.1570 O.2    23  LYS23      -0.2718
      5  CB         8.0550    9.7800   -1.8150 C.3    23  LYS23       0.0285
      6  CG         7.3430    9.4020   -3.1140 C.3    23  LYS23       0.0035
      7  CD         7.9640    8.1630   -3.7250 C.3    23  LYS23       0.0206
      8  CE         7.2960    7.7460   -5.0320 C.3    23  LYS23       0.1093
      9  NZ         8.1570    6.7040   -5.6870 N.3    23  LYS23      -0.1314
     10  N          5.6100   10.8660   -0.0430 N.am   24  TYR24      -0.1976
     11  CA         4.1730   10.9340    0.1810 C.3    24  TYR24       0.1639
     12  C          4.0210   11.7520    1.4470 C.2    24  TYR24       0.2290
     13  O          4.2900   11.2690    2.5480 O.2    24  TYR24      -0.2864
     14  CB         3.5490    9.5350    0.3750 C.3    24  TYR24       0.0560
     15  CG         3.5680    8.6630   -0.8600 C.ar   24  TYR24      -0.0198
     16  CD1        2.5670    8.7620   -1.8220 C.ar   24  TYR24      -0.0009
     17  CD2        4.6160    7.7730   -1.0920 C.ar   24  TYR24      -0.0009
     18  CE1        2.6170    7.9930   -3.0000 C.ar   24  TYR24       0.0417
     19  CE2        4.6760    7.0030   -2.2560 C.ar   24  TYR24       0.0417
     20  CZ         3.6790    7.1200   -3.2070 C.ar   24  TYR24       0.1957
     21  OH         3.7600    6.3800   -4.3610 O.3    24  TYR24      -0.2866
     22  N          0.2420   12.7450   -2.9420 N.3    42  TRP42      -0.1241
     23  CA         1.4200   12.7610   -3.7850 C.3    42  TRP42       0.1605
     24  C          1.4090   14.0430   -4.6020 C.2    42  TRP42       0.2264
     25  O          0.3920   14.3930   -5.1980 O.2    42  TRP42      -0.2867
     26  CB         1.4160   11.5570   -4.7140 C.3    42  TRP42       0.0550
     27  CG         2.6610   11.4450   -5.4750 C.ar   42  TRP42       0.0003
     28  CD1        3.8750   11.0470   -5.0010 C.ar   42  TRP42       0.0946
     29  CD2        2.8580   11.7910   -6.8470 C.ar   42  TRP42       0.0152
     30  NE1        4.8180   11.1150   -5.9970 N.ar   42  TRP42      -0.2442
     31  CE2        4.2230   11.5710   -7.1410 C.ar   42  TRP42       0.0810
     32  CE3        2.0130   12.2670   -7.8590 C.ar   42  TRP42       0.0012
     33  CZ2        4.7590   11.8070   -8.4020 C.ar   42  TRP42       0.0191
     34  CZ3        2.5530   12.5030   -9.1120 C.ar   42  TRP42       0.0001
     35  CH2        3.9150   12.2710   -9.3740 C.ar   42  TRP42       0.0015
     36  N         -4.0530    2.4050   -4.9490 N.3    50  THR50      -0.1203
     37  CA        -3.5560    1.7340   -6.1500 C.3    50  THR50       0.1994
     38  C         -2.3690    2.5080   -6.7040 C.2    50  THR50       0.2618
     39  O         -1.5780    1.9810   -7.4800 O.2    50  THR50      -0.2717
     40  CB        -4.6090    1.7130   -7.2420 C.3    50  THR50       0.1784
     41  OG1       -5.2070    3.0190   -7.3150 O.3    50  THR50      -0.2211
     42  CG2       -5.6490    0.6450   -6.9570 C.3    50  THR50       0.0376
     43  N         -2.2800    3.7800   -6.3230 N.am   51  PHE51      -0.1961
     44  CA        -1.1920    4.6420   -6.7520 C.3    51  PHE51       0.1771
     45  C          0.1780    4.0820   -6.3490 C.2    51  PHE51       0.2619
     46  O          1.1510    4.2070   -7.0800 O.2    51  PHE51      -0.2715
     47  CB        -1.3620    6.0330   -6.1270 C.3    51  PHE51       0.0574
     48  CG        -0.5320    7.0890   -6.7840 C.ar   51  PHE51      -0.0200
     49  CD1       -1.0320    7.8110   -7.8710 C.ar   51  PHE51      -0.0042
     50  CD2        0.7540    7.3600   -6.3260 C.ar   51  PHE51      -0.0042
     51  CE1       -0.2580    8.7940   -8.4920 C.ar   51  PHE51      -0.0003
     52  CE2        1.5420    8.3350   -6.9320 C.ar   51  PHE51      -0.0003
     53  CZ         1.0350    9.0590   -8.0210 C.ar   51  PHE51      -0.0000
     54  N          0.2450    3.4620   -5.1760 N.am   52  LEU52      -0.1963
     55  CA         1.4970    2.9230   -4.6570 C.3    52  LEU52       0.1728
     56  C          2.0710    1.7130   -5.3560 C.2    52  LEU52       0.2617
     57  O          1.3830    0.9640   -6.0500 O.2    52  LEU52      -0.2715
     58  CB         1.3090    2.5520   -3.1960 C.3    52  LEU52       0.0311
     59  CG         0.6480    3.6050   -2.3140 C.3    52  LEU52       0.0022
     60  CD1        0.1850    2.9380   -1.0130 C.3    52  LEU52       0.0001
     61  CD2        1.6400    4.7630   -2.0290 C.3    52  LEU52       0.0001
     62  N          3.3560    1.5110   -5.1130 N.am   53  SER53      -0.1936
     63  CA         4.0620    0.3580   -5.6430 C.3    53  SER53       0.2055
     64  C          3.8860   -0.7140   -4.5500 C.2    53  SER53       0.2644
     65  O          3.4410   -0.3950   -3.4420 O.2    53  SER53      -0.2714
     66  CB         5.5430    0.7070   -5.8410 C.3    53  SER53       0.2130
     67  OG         6.3240    0.4920   -4.6800 O.3    53  SER53      -0.2179
     68  N          4.2340   -1.9640   -4.8590 N.am   54  GLY54      -0.1939
     69  CA         4.0950   -3.0320   -3.8930 C.3    54  GLY54       0.2014
     70  C          4.8800   -2.8120   -2.6200 C.2    54  GLY54       0.2639
     71  O          4.3890   -3.0580   -1.5170 O.2    54  GLY54      -0.2714
     72  N          6.1150   -2.3480   -2.7580 N.am   55  GLY55      -0.1939
     73  CA         6.9370   -2.1120   -1.5830 C.3    55  GLY55       0.2014
     74  C          6.3760   -0.9350   -0.8140 C.2    55  GLY55       0.2638
     75  O          6.4280   -0.8910    0.4240 O.2    55  GLY55      -0.2714
     76  N          5.8200    0.0290   -1.5400 N.am   56  GLU56      -0.1977
     77  CA         5.2540    1.1880   -0.8720 C.3    56  GLU56       0.1602
     78  C          4.0430    0.8030   -0.0320 C.2    56  GLU56       0.2287
     79  O          3.8000    1.3920    1.0340 O.2    56  GLU56      -0.2864
     80  CB         4.8970    2.2740   -1.9050 C.3    56  GLU56       0.0415
     81  CG         6.1000    3.1610   -2.2170 C.3    56  GLU56       0.1163
     82  CD         5.9490    3.9720   -3.4770 C.2    56  GLU56       0.3649
     83  OE1        4.8500    3.9760   -4.0750 O.co2  56  GLU56      -0.2457
     84  OE2        6.9430    4.6110   -3.8640 O.co2  56  GLU56      -0.2457
     85  N          9.2890   -7.5860    0.3440 N.3    87  TYR87      -0.1241
     86  CA         9.1080   -6.5420   -0.6790 C.3    87  TYR87       0.1605
     87  C          9.9070   -5.2500   -0.4890 C.2    87  TYR87       0.2264
     88  O          9.9640   -4.4250   -1.4040 O.2    87  TYR87      -0.2867
     89  CB         7.6190   -6.1890   -0.8520 C.3    87  TYR87       0.0534
     90  CG         6.7520   -7.3780   -1.1940 C.ar   87  TYR87      -0.0201
     91  CD1        6.7030   -7.9000   -2.4930 C.ar   87  TYR87      -0.0009
     92  CD2        6.0590   -8.0350   -0.1940 C.ar   87  TYR87      -0.0009
     93  CE1        5.9780   -9.0730   -2.7720 C.ar   87  TYR87       0.0417
     94  CE2        5.3410   -9.1840   -0.4500 C.ar   87  TYR87       0.0417
     95  CZ         5.3000   -9.7050   -1.7240 C.ar   87  TYR87       0.1957
     96  OH         4.5960  -10.8540   -1.8820 O.3    87  TYR87      -0.2866
     97  N         13.1240   -2.9350   -0.4900 N.3    89  ASP89      -0.1239
     98  CA        14.4540   -2.9770   -1.0920 C.3    89  ASP89       0.1674
     99  C         15.4660   -2.6230   -0.0010 C.2    89  ASP89       0.2266
    100  O         15.0760   -2.3830    1.1380 O.2    89  ASP89      -0.2867
    101  CB        14.5360   -2.0050   -2.2640 C.3    89  ASP89       0.1410
    102  CG        14.2890   -0.5670   -1.8540 C.2    89  ASP89       0.3668
    103  OD1       14.3700   -0.2650   -0.6450 O.co2  89  ASP89      -0.2456
    104  OD2       14.0220    0.2600   -2.7510 O.co2  89  ASP89      -0.2456
@<TRIPOS>BOND
     1    35    34   ar
     2    35    33   ar
     3    34    32   ar
     4    51    53   ar
     5    51    49   ar
     6    33    31   ar
     7    53    52   ar
     8    49    48   ar
     9    32    29   ar
    10    39    38    2
    11    41    40    1
    12    40    42    1
    13    40    37    1
    14    31    29   ar
    15    31    30   ar
    16    46    45    2
    17    52    50   ar
    18    29    27   ar
    19    48    50   ar
    20    48    47    1
    21    44    45    1
    22    44    43    1
    23    44    47    1
    24    38    43   am
    25    38    37    1
    26    45    54   am
    27    37    36    1
    28    57    56    2
    29    30    28   ar
    30    66    63    1
    31    66    67    1
    32     9     8    1
    33    63    62    1
    34    63    64    1
    35    27    28   ar
    36    27    26    1
    37    56    62   am
    38    56    55    1
    39    25    24    2
    40    54    55    1
    41     8     7    1
    42    68    64   am
    43    68    69    1
    44    26    23    1
    45    55    58    1
    46    24    23    1
    47    64    65    2
    48    21    20    1
    49    83    82   ar
    50    69    70    1
    51    84    82   ar
    52    23    22    1
    53     7     6    1
    54    82    81    1
    55    20    18   ar
    56    20    19   ar
    57    58    59    1
    58     6     5    1
    59    18    16   ar
    60    93    91   ar
    61    93    95   ar
    62    72    70   am
    63    72    73    1
    64   104   102   ar
    65    70    71    2
    66    91    90   ar
    67    59    61    1
    68    59    60    1
    69   101   102    1
    70   101    98    1
    71    19    17   ar
    72    81    80    1
    73     4     3    2
    74    80    77    1
    75    96    95    1
    76   102   103   ar
    77    16    15   ar
    78     5     2    1
    79    95    94   ar
    80    73    74    1
    81    76    77    1
    82    76    74   am
    83    88    87    2
    84     2     3    1
    85     2     1    1
    86     3    10   am
    87    90    89    1
    88    90    92   ar
    89    17    15   ar
    90    98    97    1
    91    98    99    1
    92    77    78    1
    93    15    14    1
    94    89    86    1
    95    74    75    2
    96    86    87    1
    97    86    85    1
    98    94    92   ar
    99    10    11    1
   100    78    79    2
   101    99   100    2
   102    11    14    1
   103    11    12    1
   104    12    13    2
