@<TRIPOS>MOLECULE
tmp/1f34A00.pdb
 101 97 0 0 0
SMALL
GASTEIGER

@<TRIPOS>ATOM
      1  N         13.9110   27.5530   41.8390 N.3    30  ILE30      -0.1245
      2  CA        13.7920   27.1730   43.2300 C.3    30  ILE30       0.1561
      3  C         13.2520   28.3980   43.9730 C.2    30  ILE30       0.2260
      4  O         13.7030   29.5180   43.7400 O.2    30  ILE30      -0.2867
      5  CB        15.1620   26.8140   43.8280 C.3    30  ILE30       0.0252
      6  CG1       15.5620   25.4060   43.3910 C.3    30  ILE30       0.0019
      7  CG2       15.1220   26.9290   45.3350 C.3    30  ILE30       0.0019
      8  CD1       16.9440   25.0280   43.8220 C.3    30  ILE30       0.0001
      9  N         13.7190   29.9170   46.8420 N.3    32  ASP32      -0.1239
     10  CA        14.7850   29.9470   47.8400 C.3    32  ASP32       0.1674
     11  C         14.7430   31.0540   48.8930 C.2    32  ASP32       0.2266
     12  O         15.1140   32.1920   48.6220 O.2    32  ASP32      -0.2867
     13  CB        16.1100   29.9950   47.0650 C.3    32  ASP32       0.1410
     14  CG        17.3390   30.1050   47.9620 C.2    32  ASP32       0.3668
     15  OD1       17.2890   29.6830   49.1400 O.co2  32  ASP32      -0.2456
     16  OD2       18.3770   30.6000   47.4590 O.co2  32  ASP32      -0.2456
     17  N         17.0180   35.0870   39.1280 N.3    39  TRP39      -0.1241
     18  CA        17.8270   34.9760   37.9170 C.3    39  TRP39       0.1605
     19  C         17.4970   33.7170   37.1370 C.2    39  TRP39       0.2264
     20  O         17.0970   32.7170   37.7200 O.2    39  TRP39      -0.2867
     21  CB        19.3410   35.0180   38.2350 C.3    39  TRP39       0.0550
     22  CG        19.9080   33.8270   39.0040 C.ar   39  TRP39       0.0003
     23  CD1       20.1550   33.7620   40.3440 C.ar   39  TRP39       0.0946
     24  CD2       20.3570   32.5790   38.4520 C.ar   39  TRP39       0.0152
     25  NE1       20.7390   32.5530   40.6650 N.ar   39  TRP39      -0.2442
     26  CE2       20.8790   31.8120   39.5180 C.ar   39  TRP39       0.0810
     27  CE3       20.3750   32.0360   37.1570 C.ar   39  TRP39       0.0012
     28  CZ2       21.4220   30.5240   39.3280 C.ar   39  TRP39       0.0191
     29  CZ3       20.9140   30.7450   36.9650 C.ar   39  TRP39       0.0001
     30  CH2       21.4290   30.0120   38.0470 C.ar   39  TRP39       0.0015
     31  N         26.8150   31.2910   46.0010 N.3    74  TYR74      -0.1241
     32  CA        26.0200   30.6020   47.0040 C.3    74  TYR74       0.1605
     33  C         26.8580   29.5200   47.6990 C.2    74  TYR74       0.2264
     34  O         28.0270   29.2940   47.3640 O.2    74  TYR74      -0.2867
     35  CB        24.8100   29.9240   46.3400 C.3    74  TYR74       0.0534
     36  CG        23.8980   30.8450   45.5560 C.ar   74  TYR74      -0.0201
     37  CD1       22.8200   31.5020   46.1800 C.ar   74  TYR74      -0.0009
     38  CD2       24.0990   31.0550   44.1910 C.ar   74  TYR74      -0.0009
     39  CE1       21.9660   32.3440   45.4520 C.ar   74  TYR74       0.0417
     40  CE2       23.2540   31.8950   43.4560 C.ar   74  TYR74       0.0417
     41  CZ        22.1930   32.5350   44.0880 C.ar   74  TYR74       0.1957
     42  OH        21.3680   33.3630   43.3520 O.3    74  TYR74      -0.2866
     43  N         26.5310   26.4080   47.3880 N.3    76  THR76      -0.1203
     44  CA        26.8110   25.3030   46.4790 C.3    76  THR76       0.1994
     45  C         27.2560   25.6960   45.0930 C.2    76  THR76       0.2618
     46  O         27.6230   24.8350   44.2960 O.2    76  THR76      -0.2717
     47  CB        25.5770   24.3870   46.3020 C.3    76  THR76       0.1784
     48  OG1       24.5060   25.1340   45.7020 O.3    76  THR76      -0.2211
     49  CG2       25.1350   23.8330   47.6470 C.3    76  THR76       0.0376
     50  N         27.2140   26.9850   44.7870 N.am   77  GLY77      -0.1942
     51  CA        27.6270   27.4130   43.4600 C.3    77  GLY77       0.2014
     52  C         27.5870   28.9110   43.2800 C.2    77  GLY77       0.2639
     53  O         27.2710   29.6500   44.2090 O.2    77  GLY77      -0.2714
     54  N         27.9050   29.3590   42.0720 N.am   78  SER78      -0.1949
     55  CA        27.9180   30.7710   41.7610 C.3    78  SER78       0.1924
     56  C         27.3410   30.9730   40.3670 C.2    78  SER78       0.2314
     57  O         27.0730   30.0110   39.6640 O.2    78  SER78      -0.2863
     58  CB        29.3510   31.2690   41.7610 C.3    78  SER78       0.2116
     59  OG        30.0230   30.7060   40.6460 O.3    78  SER78      -0.2180
     60  N         26.3200   20.0730   38.5400 N.3   110  PHE110     -0.1227
     61  CA        25.1090   20.0810   39.3360 C.3   110  PHE110      0.1736
     62  C         23.9930   20.7630   38.5430 C.2   110  PHE110      0.2595
     63  O         22.9340   20.1770   38.3260 O.2   110  PHE110     -0.2718
     64  CB        25.3310   20.8100   40.6540 C.3   110  PHE110      0.0547
     65  CG        24.1570   20.7150   41.5830 C.ar  110  PHE110     -0.0202
     66  CD1       23.8300   19.5050   42.1840 C.ar  110  PHE110     -0.0042
     67  CD2       23.3310   21.8140   41.8030 C.ar  110  PHE110     -0.0042
     68  CE1       22.6890   19.3880   42.9900 C.ar  110  PHE110     -0.0003
     69  CE2       22.1850   21.7090   42.6060 C.ar  110  PHE110     -0.0003
     70  CZ        21.8610   20.5000   43.1980 C.ar  110  PHE110     -0.0000
     71  N         24.2460   21.9930   38.0970 N.am  111  LEU111     -0.1980
     72  CA        23.2690   22.7470   37.3160 C.3   111  LEU111      0.1596
     73  C         22.8920   22.0860   35.9860 C.2   111  LEU111      0.2287
     74  O         21.7490   22.1970   35.5370 O.2   111  LEU111     -0.2864
     75  CB        23.7850   24.1630   37.0570 C.3   111  LEU111      0.0297
     76  CG        23.1640   25.2590   37.9300 C.3   111  LEU111      0.0022
     77  CD1       22.8900   24.7170   39.3100 C.3   111  LEU111      0.0001
     78  CD2       24.0810   26.4840   37.9770 C.3   111  LEU111      0.0001
     79  N         15.8520   22.2380   37.3660 N.3   116  PHE116     -0.1241
     80  CA        15.2830   23.5890   37.4190 C.3   116  PHE116      0.1605
     81  C         16.1710   24.5800   36.6330 C.2   116  PHE116      0.2264
     82  O         17.3540   24.3190   36.3950 O.2   116  PHE116     -0.2867
     83  CB        15.1080   24.0540   38.8830 C.3   116  PHE116      0.0534
     84  CG        16.3750   23.9880   39.7100 C.ar  116  PHE116     -0.0203
     85  CD1       16.7610   22.8030   40.3280 C.ar  116  PHE116     -0.0042
     86  CD2       17.1860   25.1070   39.8530 C.ar  116  PHE116     -0.0042
     87  CE1       17.9350   22.7290   41.0810 C.ar  116  PHE116     -0.0003
     88  CE2       18.3610   25.0510   40.6000 C.ar  116  PHE116     -0.0003
     89  CZ        18.7410   23.8550   41.2200 C.ar  116  PHE116     -0.0000
     90  N         16.7520   30.6930   39.9960 N.3   119  ILE119     -0.1245
     91  CA        16.4990   30.8900   41.4130 C.3   119  ILE119      0.1561
     92  C         15.6920   32.1570   41.6790 C.2   119  ILE119      0.2260
     93  O         15.9530   33.2100   41.0930 O.2   119  ILE119     -0.2867
     94  CB        17.8400   30.9910   42.2040 C.3   119  ILE119      0.0252
     95  CG1       18.6480   29.7030   41.9990 C.3   119  ILE119      0.0019
     96  CG2       17.5590   31.2380   43.6900 C.3   119  ILE119      0.0019
     97  CD1       19.9240   29.6420   42.7680 C.3   119  ILE119      0.0001
     98  N         15.9240   26.5570   50.0870 N.3   216  GLY216     -0.1225
     99  CA        16.9450   26.2220   49.1060 C.3   216  GLY216      0.1811
    100  C         17.9750   25.1610   49.4840 C.2   216  GLY216      0.2280
    101  O         18.7640   24.7340   48.6350 O.2   216  GLY216     -0.2866
@<TRIPOS>BOND
     1    74    73    2
     2    73    72    1
     3    82    81    2
     4    81    80    1
     5    29    27   ar
     6    29    30   ar
     7    75    72    1
     8    75    76    1
     9    19    20    2
    10    19    18    1
    11    27    24   ar
    12    72    71    1
    13    79    80    1
    14    80    83    1
    15    18    21    1
    16    18    17    1
    17    76    78    1
    18    76    77    1
    19    30    28   ar
    20    71    62   am
    21    21    22    1
    22    63    62    2
    23    24    22   ar
    24    24    26   ar
    25    60    61    1
    26    62    61    1
    27    83    84    1
    28    22    23   ar
    29    28    26   ar
    30    61    64    1
    31    26    25   ar
    32    57    56    2
    33    84    86   ar
    34    84    85   ar
    35    86    88   ar
    36    90    91    1
    37    85    87   ar
    38    23    25   ar
    39    56    55    1
    40    88    89   ar
    41    59    58    1
    42    64    65    1
    43    87    89   ar
    44    93    92    2
    45    91    92    1
    46    91    94    1
    47    65    67   ar
    48    65    66   ar
    49    58    55    1
    50    55    54    1
    51    67    69   ar
    52     1     2    1
    53    95    94    1
    54    95    97    1
    55    54    52   am
    56    66    68   ar
    57    94    96    1
    58    69    70   ar
    59    68    70   ar
    60     2     5    1
    61     2     3    1
    62    52    51    1
    63    52    53    2
    64    42    41    1
    65     6     8    1
    66     6     5    1
    67    40    41   ar
    68    40    38   ar
    69    51    50    1
    70     4     3    2
    71     5     7    1
    72    41    39   ar
    73    38    36   ar
    74    46    45    2
    75    50    45   am
    76    45    44    1
    77    39    37   ar
    78    36    37   ar
    79    36    35    1
    80    48    47    1
    81    31    32    1
    82    47    44    1
    83    47    49    1
    84    35    32    1
    85    44    43    1
    86     9    10    1
    87    32    33    1
    88    13    10    1
    89    13    14    1
    90    34    33    2
    91    16    14   ar
    92    10    11    1
    93    14    15   ar
    94    12    11    2
    95   101   100    2
    96    99   100    1
    97    99    98    1
