@<TRIPOS>MOLECULE
tmp/1f3aB00.pdb
 129 126 0 0 0
SMALL
GASTEIGER

@<TRIPOS>ATOM
      1  N         13.2490   14.0740   19.7600 N.3     8  TYR8       -0.1227
      2  CA        12.8970   13.2150   18.6380 C.3     8  TYR8        0.1736
      3  C         11.5060   13.5660   18.1650 C.2     8  TYR8        0.2595
      4  O         10.8480   14.3820   18.7720 O.2     8  TYR8       -0.2718
      5  CB        12.9340   11.7250   19.0620 C.3     8  TYR8        0.0548
      6  CG        13.0830   10.7580   17.9180 C.ar    8  TYR8       -0.0200
      7  CD1       14.3110   10.6160   17.2670 C.ar    8  TYR8       -0.0009
      8  CD2       11.9980    9.9890   17.4650 C.ar    8  TYR8       -0.0009
      9  CE1       14.4580    9.7360   16.1930 C.ar    8  TYR8        0.0417
     10  CE2       12.1340    9.0970   16.3870 C.ar    8  TYR8        0.0417
     11  CZ        13.3790    8.9820   15.7490 C.ar    8  TYR8        0.1957
     12  OH        13.5460    8.1520   14.6680 O.3     8  TYR8       -0.2866
     13  N         11.0770   12.9580   17.0710 N.am    9  PHE9       -0.1976
     14  CA         9.7270   13.1580   16.5380 C.3     9  PHE9        0.1639
     15  C          8.8000   12.4270   17.5320 C.2     9  PHE9        0.2290
     16  O          9.2800   11.6940   18.3900 O.2     9  PHE9       -0.2864
     17  CB         9.6390   12.5310   15.1450 C.3     9  PHE9        0.0560
     18  CG        10.7350   13.0140   14.2060 C.ar    9  PHE9       -0.0200
     19  CD1       10.6440   14.2630   13.5950 C.ar    9  PHE9       -0.0042
     20  CD2       11.8940   12.2500   14.0120 C.ar    9  PHE9       -0.0042
     21  CE1       11.6950   14.7520   12.8130 C.ar    9  PHE9       -0.0003
     22  CE2       12.9520   12.7260   13.2360 C.ar    9  PHE9       -0.0003
     23  CZ        12.8660   13.9750   12.6350 C.ar    9  PHE9       -0.0000
     24  N         14.0540    5.4560   15.9880 N.3    14  ARG14      -0.1245
     25  CA        15.2690    5.0090   16.6660 C.3    14  ARG14       0.1563
     26  C         15.2920    5.3790   18.1360 C.2    14  ARG14       0.2260
     27  O         16.1420    4.9180   18.8790 O.2    14  ARG14      -0.2867
     28  CB        16.4980    5.6520   16.0140 C.3    14  ARG14       0.0307
     29  CG        16.5820    5.4880   14.4960 C.3    14  ARG14       0.0489
     30  CD        17.9120    6.0670   14.0010 C.3    14  ARG14       0.2205
     31  NE        18.0150    5.9970   12.5480 N.pl3  14  ARG14      -0.0865
     32  CZ        18.0990    4.8630   11.8720 C.cat  14  ARG14       0.5346
     33  NH1       18.0920    3.7150   12.5330 N.pl3  14  ARG14       0.1354
     34  NH2       18.1990    4.8740   10.5380 N.pl3  14  ARG14       0.1354
     35  N         13.0800   21.3320   14.0110 N.3    40  LEU40      -0.1245
     36  CA        14.3300   20.6270   13.6670 C.3    40  LEU40       0.1561
     37  C         15.4320   21.6210   13.2970 C.2    40  LEU40       0.2260
     38  O         16.5560   21.5180   13.7800 O.2    40  LEU40      -0.2867
     39  CB        14.0850   19.6710   12.5050 C.3    40  LEU40       0.0270
     40  CG        15.2520   18.7880   12.0350 C.3    40  LEU40       0.0019
     41  CD1       15.8960   18.0850   13.2330 C.3    40  LEU40       0.0001
     42  CD2       14.7330   17.7970   11.0050 C.3    40  LEU40       0.0001
     43  N         19.2220   22.3550   15.0620 N.3    44  LYS44      -0.1245
     44  CA        20.5250   22.3990   14.4040 C.3    44  LYS44       0.1561
     45  C         21.2380   23.7680   14.6020 C.2    44  LYS44       0.2260
     46  O         22.3710   23.8110   15.0680 O.2    44  LYS44      -0.2867
     47  CB        20.3740   22.0800   12.9100 C.3    44  LYS44       0.0271
     48  CG        19.7890   20.7050   12.5970 C.3    44  LYS44       0.0035
     49  CD        19.5030   20.5580   11.0870 C.3    44  LYS44       0.0206
     50  CE        18.9650   19.1690   10.7440 C.3    44  LYS44       0.1093
     51  NZ        18.5130   19.1140    9.3270 N.3    44  LYS44      -0.1314
     52  N         25.7090   15.7500   14.2880 N.3    51  PHE51      -0.1227
     53  CA        25.6670   15.4620   12.8590 C.3    51  PHE51       0.1736
     54  C         24.3270   15.9060   12.2980 C.2    51  PHE51       0.2595
     55  O         23.7970   15.3220   11.3410 O.2    51  PHE51      -0.2718
     56  CB        25.8230   13.9480   12.6120 C.3    51  PHE51       0.0547
     57  CG        27.0690   13.3610   13.1790 C.ar   51  PHE51      -0.0202
     58  CD1       28.3140   13.7150   12.6810 C.ar   51  PHE51      -0.0042
     59  CD2       27.0020   12.4720   14.2630 C.ar   51  PHE51      -0.0042
     60  CE1       29.4580   13.2210   13.2370 C.ar   51  PHE51      -0.0003
     61  CE2       28.1630   11.9630   14.8410 C.ar   51  PHE51      -0.0003
     62  CZ        29.4010   12.3400   14.3310 C.ar   51  PHE51      -0.0000
     63  N         23.7740   16.9530   12.8950 N.am   52  ASP52      -0.1960
     64  CA        22.4650   17.4630   12.5040 C.3    52  ASP52       0.1840
     65  C         21.3330   16.4330   12.4340 C.2    52  ASP52       0.2622
     66  O         20.3700   16.5820   11.6450 O.2    52  ASP52      -0.2715
     67  CB        22.5760   18.2370   11.1950 C.3    52  ASP52       0.1450
     68  CG        23.1840   19.6330   11.4160 C.2    52  ASP52       0.3671
     69  OD1       23.2850   20.0650   12.5910 O.co2  52  ASP52      -0.2456
     70  OD2       23.5510   20.2880   10.4260 O.co2  52  ASP52      -0.2456
     71  N         21.4210   15.4190   13.2980 N.am   53  GLN53      -0.1963
     72  CA        20.4030   14.3660   13.3500 C.3    53  GLN53       0.1733
     73  C         19.9400   14.0620   14.7840 C.2    53  GLN53       0.2616
     74  O         20.6100   14.3920   15.7620 O.2    53  GLN53      -0.2715
     75  CB        20.9850   13.0230   12.8270 C.3    53  GLN53       0.0408
     76  CG        21.4880   12.9830   11.3730 C.3    53  GLN53       0.0908
     77  CD        22.2110   11.6720   11.0670 C.2    53  GLN53       0.2608
     78  OE1       23.0010   11.1940   11.8670 O.2    53  GLN53      -0.2717
     79  NE2       21.9320   11.0950    9.9050 N.am   53  GLN53      -0.0878
     80  N         18.8250   13.3440   14.8730 N.am   54  VAL54      -0.1964
     81  CA        18.3340   12.8400   16.1620 C.3    54  VAL54       0.1712
     82  C         18.2040   11.3370   15.9080 C.2    54  VAL54       0.2458
     83  O         18.1530   10.9110   14.7740 O.2    54  VAL54      -0.2730
     84  CB        16.9520   13.4330   16.5780 C.3    54  VAL54       0.0289
     85  CG1       17.1560   14.8570   17.1200 C.3    54  VAL54       0.0023
     86  CG2       15.9540   13.3810   15.4140 C.3    54  VAL54       0.0023
     87  N         18.1010   10.5250   16.9570 N.am   55  PRO55      -0.2727
     88  CA        18.0730   10.8530   18.3820 C.3    55  PRO55       0.1402
     89  C         19.1530   11.6780   18.9990 C.2    55  PRO55       0.2269
     90  O         20.3220   11.5510   18.6560 O.2    55  PRO55      -0.2865
     91  CB        18.0380    9.4670   19.0730 C.3    55  PRO55       0.0296
     92  CG        17.4840    8.5380   17.9750 C.3    55  PRO55       0.0237
     93  CD        18.1930    9.0540   16.7660 C.3    55  PRO55       0.0939
     94  N         23.4970    9.8920   18.3050 N.3    66  GLN66      -0.1231
     95  CA        23.7680    8.5310   17.8580 C.3    66  GLN66       0.1698
     96  C         23.1110    7.4900   18.8190 C.2    66  GLN66       0.2593
     97  O         23.5300    7.2830   19.9340 O.2    66  GLN66      -0.2718
     98  CB        25.2900    8.2900   17.7210 C.3    66  GLN66       0.0381
     99  CG        25.8540    8.9950   16.4350 C.3    66  GLN66       0.0905
    100  CD        25.3350    8.4150   15.1200 C.2    66  GLN66       0.2608
    101  OE1       24.6320    7.4050   15.0870 O.2    66  GLN66      -0.2717
    102  NE2       25.6940    9.0540   14.0170 N.am   66  GLN66      -0.0878
    103  N         22.0860    6.8390   18.3120 N.am   67  THR67      -0.1939
    104  CA        21.3310    5.8480   19.0840 C.3    67  THR67       0.2028
    105  C         22.1840    4.9530   19.9260 C.2    67  THR67       0.2642
    106  O         21.9990    4.8730   21.1290 O.2    67  THR67      -0.2714
    107  CB        20.5310    4.9830   18.1580 C.3    67  THR67       0.1808
    108  OG1       19.7570    5.8170   17.3070 O.3    67  THR67      -0.2208
    109  CG2       19.6090    4.0210   18.9500 C.3    67  THR67       0.0379
    110  N         23.1370    4.2620   19.3000 N.am   68  ARG68      -0.1977
    111  CA        23.9690    3.3360   20.0290 C.3    68  ARG68       0.1597
    112  C         24.8540    3.9310   21.0750 C.2    68  ARG68       0.2287
    113  O         25.1440    3.3010   22.0830 O.2    68  ARG68      -0.2864
    114  CB        24.7970    2.5270   19.0440 C.3    68  ARG68       0.0334
    115  CG        23.9480    1.5200   18.2520 C.3    68  ARG68       0.0492
    116  CD        24.8440    0.8160   17.2440 C.3    68  ARG68       0.2205
    117  NE        24.2310   -0.2760   16.4960 N.pl3  68  ARG68      -0.0865
    118  CZ        23.4200   -0.1470   15.4570 C.cat  68  ARG68       0.5346
    119  NH1       23.0670    1.0470   15.0160 N.pl3  68  ARG68       0.1354
    120  NH2       23.0260   -1.2230   14.7870 N.pl3  68  ARG68       0.1354
    121  N         11.0650   16.5720    4.9950 N.3   220  LYS220     -0.1245
    122  CA        11.6720   16.0890    3.7580 C.3   220  LYS220      0.1561
    123  C         11.4520   14.5890    3.5770 C.2   220  LYS220      0.2260
    124  O         12.0600   13.7750    4.2720 O.2   220  LYS220     -0.2867
    125  CB        13.1710   16.3930    3.7530 C.3   220  LYS220      0.0271
    126  CG        13.4950   17.8730    3.8380 C.3   220  LYS220      0.0035
    127  CD        14.9940   18.1110    3.8380 C.3   220  LYS220      0.0206
    128  CE        15.3090   19.5910    3.9620 C.3   220  LYS220      0.1093
    129  NZ        14.7390   20.1700    5.2100 N.3   220  LYS220     -0.1314
@<TRIPOS>BOND
     1   123   122    1
     2   123   124    2
     3   125   122    1
     4   125   126    1
     5   122   121    1
     6   127   126    1
     7   127   128    1
     8   128   129    1
     9    51    50    1
    10    79    77   am
    11    70    68   ar
    12    34    32    1
    13    50    49    1
    14    42    40    1
    15    77    76    1
    16    77    78    2
    17    49    48    1
    18    67    68    1
    19    67    64    1
    20    55    54    2
    21    76    75    1
    22    68    69   ar
    23    66    65    2
    24    32    33    1
    25    32    31    2
    26    40    39    1
    27    40    41    1
    28    54    53    1
    29    54    63   am
    30    65    64    1
    31    65    71   am
    32    64    63    1
    33    39    36    1
    34    31    30    1
    35    48    47    1
    36    56    53    1
    37    56    57    1
    38    23    21   ar
    39    23    22   ar
    40    58    57   ar
    41    58    60   ar
    42    21    19   ar
    43    75    72    1
    44    53    52    1
    45    47    44    1
    46    57    59   ar
    47    22    20   ar
    48    60    62   ar
    49    37    36    1
    50    37    38    2
    51    71    72    1
    52    72    73    1
    53    19    18   ar
    54    36    35    1
    55    30    29    1
    56    20    18   ar
    57   102   100   am
    58    18    17    1
    59    59    61   ar
    60    62    61   ar
    61    44    45    1
    62    44    43    1
    63    29    28    1
    64    45    46    2
    65    12    11    1
    66    83    82    2
    67    73    80   am
    68    73    74    2
    69   120   118    1
    70    80    81    1
    71   119   118    1
    72   101   100    2
    73   100    99    1
    74    17    14    1
    75    86    84    1
    76   118   117    2
    77    11     9   ar
    78    11    10   ar
    79    82    81    1
    80    82    87   am
    81    24    25    1
    82    28    25    1
    83    81    84    1
    84     9     7   ar
    85    10     8   ar
    86    99    98    1
    87   117   116    1
    88    14    13    1
    89    14    15    1
    90    84    85    1
    91    25    26    1
    92    93    87    1
    93    93    92    1
    94    87    88    1
    95    13     3   am
    96   116   115    1
    97     7     6   ar
    98   108   107    1
    99     8     6   ar
   100    15    16    2
   101    98    95    1
   102    95    94    1
   103    95    96    1
   104     6     5    1
   105    92    91    1
   106    26    27    2
   107   107   109    1
   108   107   104    1
   109     3     2    1
   110     3     4    2
   111   115   114    1
   112   103    96   am
   113   103   104    1
   114    88    89    1
   115    88    91    1
   116     2     5    1
   117     2     1    1
   118    90    89    2
   119    96    97    2
   120   114   111    1
   121   104   105    1
   122   110   105   am
   123   110   111    1
   124   105   106    2
   125   111   112    1
   126   112   113    2
