@<TRIPOS>MOLECULE
tmp/1f3bB00.pdb
 178 172 0 0 0
SMALL
GASTEIGER

@<TRIPOS>ATOM
      1  N         13.8010   14.7660   19.8310 N.3     8  TYR8       -0.1227
      2  CA        13.3850   13.9430   18.6960 C.3     8  TYR8        0.1736
      3  C         12.0060   14.3570   18.1690 C.2     8  TYR8        0.2595
      4  O         11.3510   15.2130   18.7450 O.2     8  TYR8       -0.2718
      5  CB        13.3380   12.4510   19.0680 C.3     8  TYR8        0.0548
      6  CG        13.4730   11.5130   17.8740 C.ar    8  TYR8       -0.0200
      7  CD1       14.6740   11.4350   17.1490 C.ar    8  TYR8       -0.0009
      8  CD2       12.4100   10.6820   17.4650 C.ar    8  TYR8       -0.0009
      9  CE1       14.8200   10.5640   16.0770 C.ar    8  TYR8        0.0417
     10  CE2       12.5520    9.8180   16.3810 C.ar    8  TYR8        0.0417
     11  CZ        13.7620    9.7580   15.6920 C.ar    8  TYR8        0.1957
     12  OH        13.9350    8.8730   14.6380 O.3     8  TYR8       -0.2866
     13  N         11.5930   13.7420   17.0670 N.am    9  PHE9       -0.1962
     14  CA        10.2620   13.9880   16.5210 C.3     9  PHE9        0.1771
     15  C          9.3130   13.3030   17.5290 C.2     9  PHE9        0.2620
     16  O          9.7660   12.4560   18.3380 O.2     9  PHE9       -0.2715
     17  CB        10.1290   13.2960   15.1760 C.3     9  PHE9        0.0574
     18  CG        11.1940   13.7000   14.1780 C.ar    9  PHE9       -0.0200
     19  CD1       11.1240   14.9360   13.5260 C.ar    9  PHE9       -0.0042
     20  CD2       12.3110   12.8890   13.9640 C.ar    9  PHE9       -0.0042
     21  CE1       12.1710   15.3750   12.6690 C.ar    9  PHE9       -0.0003
     22  CE2       13.3500   13.3110   13.1160 C.ar    9  PHE9       -0.0003
     23  CZ        13.2830   14.5640   12.4660 C.ar    9  PHE9       -0.0000
     24  N          8.0270   13.6630   17.4930 N.am   10  ASN10      -0.1958
     25  CA         7.0600   13.0330   18.3870 C.3    10  ASN10       0.1819
     26  C          6.7000   11.7220   17.6670 C.2    10  ASN10       0.2621
     27  O          5.6620   11.6310   16.9640 O.2    10  ASN10      -0.2715
     28  CB         5.8210   13.9180   18.5350 C.3    10  ASN10       0.1195
     29  CG         4.8860   13.4230   19.6080 C.2    10  ASN10       0.2630
     30  OD1        5.0280   12.3030   20.1160 O.2    10  ASN10      -0.2716
     31  ND2        3.9300   14.2560   19.9760 N.am   10  ASN10      -0.0877
     32  N          7.5480   10.7070   17.8450 N.am   11  ALA11      -0.1977
     33  CA         7.3880    9.4370   17.1730 C.3    11  ALA11       0.1597
     34  C          8.3940    8.4490   17.7450 C.2    11  ALA11       0.2287
     35  O          9.3190    8.8420   18.4500 O.2    11  ALA11      -0.2864
     36  CB         7.6570    9.6310   15.6620 C.3    11  ALA11       0.0319
     37  N         10.6220    5.9970   15.9850 N.3    13  GLY13      -0.1210
     38  CA        11.8940    6.1060   15.2930 C.3    13  GLY13       0.1956
     39  C         13.0550    5.4990   16.0860 C.2    13  GLY13       0.2611
     40  O         12.9160    4.4560   16.7420 O.2    13  GLY13      -0.2717
     41  N         14.2000    6.1800   15.9980 N.am   14  ARG14      -0.1979
     42  CA        15.4290    5.7800   16.6590 C.3    14  ARG14       0.1597
     43  C         15.4840    6.1540   18.1170 C.2    14  ARG14       0.2287
     44  O         16.3410    5.6390   18.8420 O.2    14  ARG14      -0.2864
     45  CB        16.6470    6.4110   15.9390 C.3    14  ARG14       0.0334
     46  CG        16.7440    5.9960   14.4750 C.3    14  ARG14       0.0492
     47  CD        18.0360    6.5040   13.8320 C.3    14  ARG14       0.2205
     48  NE        18.0230    6.1960   12.4100 N.pl3  14  ARG14      -0.0865
     49  CZ        18.4700    5.0560   11.8920 C.cat  14  ARG14       0.5346
     50  NH1       18.9900    4.1280   12.6810 N.pl3  14  ARG14       0.1354
     51  NH2       18.3200    4.8100   10.5980 N.pl3  14  ARG14       0.1354
     52  N         13.7400   21.8400   13.8230 N.3    40  LEU40      -0.1245
     53  CA        14.9450   21.0960   13.5030 C.3    40  LEU40       0.1561
     54  C         16.1020   22.0340   13.0790 C.2    40  LEU40       0.2260
     55  O         17.2390   21.8640   13.5300 O.2    40  LEU40      -0.2867
     56  CB        14.6430   20.0770   12.4200 C.3    40  LEU40       0.0270
     57  CG        15.8000   19.1680   12.0150 C.3    40  LEU40       0.0019
     58  CD1       16.3650   18.4770   13.2300 C.3    40  LEU40       0.0001
     59  CD2       15.3240   18.1600   10.9720 C.3    40  LEU40       0.0001
     60  N         19.8670   22.7030   14.9260 N.3    44  LYS44      -0.1245
     61  CA        21.1330   22.6480   14.2190 C.3    44  LYS44       0.1561
     62  C         21.9380   23.9420   14.3510 C.2    44  LYS44       0.2260
     63  O         23.0820   23.9030   14.7640 O.2    44  LYS44      -0.2867
     64  CB        20.9040   22.3500   12.7300 C.3    44  LYS44       0.0271
     65  CG        20.3060   21.0050   12.4370 C.3    44  LYS44       0.0035
     66  CD        20.1140   20.8370   10.9210 C.3    44  LYS44       0.0206
     67  CE        19.3940   19.5300   10.6420 C.3    44  LYS44       0.1093
     68  NZ        19.1400   19.2650    9.2080 N.3    44  LYS44      -0.1314
     69  N         24.4260   17.1420   13.0780 N.3    52  ASP52      -0.1225
     70  CA        23.1370   17.7310   12.6810 C.3    52  ASP52       0.1805
     71  C         22.0280   16.7210   12.5920 C.2    52  ASP52       0.2598
     72  O         21.1280   16.8520   11.7580 O.2    52  ASP52      -0.2718
     73  CB        23.2250   18.4890   11.3580 C.3    52  ASP52       0.1424
     74  CG        23.9790   19.7900   11.4780 C.2    52  ASP52       0.3668
     75  OD1       24.0190   20.4120   12.5740 O.co2  52  ASP52      -0.2456
     76  OD2       24.5290   20.2230   10.4580 O.co2  52  ASP52      -0.2456
     77  N         22.0600   15.7330   13.4870 N.am   53  GLN53      -0.1965
     78  CA        21.0280   14.7060   13.5350 C.3    53  GLN53       0.1733
     79  C         20.4950   14.4710   14.9510 C.2    53  GLN53       0.2616
     80  O         21.1330   14.8150   15.9320 O.2    53  GLN53      -0.2715
     81  CB        21.5730   13.3660   13.0750 C.3    53  GLN53       0.0408
     82  CG        21.9950   13.3160   11.6200 C.3    53  GLN53       0.0908
     83  CD        22.7430   12.0410   11.3340 C.2    53  GLN53       0.2608
     84  OE1       23.6470   11.6530   12.0970 O.2    53  GLN53      -0.2717
     85  NE2       22.4080   11.3930   10.2270 N.am   53  GLN53      -0.0878
     86  N         19.3150   13.8680   15.0140 N.am   54  VAL54      -0.1964
     87  CA        18.7520   13.3990   16.2330 C.3    54  VAL54       0.1712
     88  C         18.6540   11.9180   16.0260 C.2    54  VAL54       0.2458
     89  O         18.7090   11.4760   14.8740 O.2    54  VAL54      -0.2730
     90  CB        17.3400   14.0340   16.5490 C.3    54  VAL54       0.0289
     91  CG1       17.5010   15.4750   17.0830 C.3    54  VAL54       0.0023
     92  CG2       16.5000   14.0290   15.2970 C.3    54  VAL54       0.0023
     93  N         18.5050   11.1090   17.0740 N.am   55  PRO55      -0.2727
     94  CA        18.3910   11.4790   18.4780 C.3    55  PRO55       0.1402
     95  C         19.5650   12.2260   19.0560 C.2    55  PRO55       0.2269
     96  O         20.7150   12.0720   18.6110 O.2    55  PRO55      -0.2865
     97  CB        18.2540   10.1340   19.1940 C.3    55  PRO55       0.0296
     98  CG        17.5570    9.2520   18.1550 C.3    55  PRO55       0.0237
     99  CD        18.3330    9.6520   16.9010 C.3    55  PRO55       0.0939
    100  N         23.8200   10.2470   18.4830 N.3    66  GLN66      -0.1231
    101  CA        24.0310    8.8750   17.9970 C.3    66  GLN66       0.1698
    102  C         23.3620    7.8740   18.9370 C.2    66  GLN66       0.2593
    103  O         23.7630    7.6940   20.0750 O.2    66  GLN66      -0.2718
    104  CB        25.5270    8.5650   17.8070 C.3    66  GLN66       0.0381
    105  CG        26.1210    9.2510   16.5460 C.3    66  GLN66       0.0905
    106  CD        25.6560    8.6270   15.2170 C.2    66  GLN66       0.2608
    107  OE1       24.8960    7.6480   15.1980 O.2    66  GLN66      -0.2717
    108  NE2       26.1380    9.1930   14.0990 N.am   66  GLN66      -0.0878
    109  N         22.3110    7.2360   18.4240 N.am   67  THR67      -0.1939
    110  CA        21.5180    6.2930   19.1940 C.3    67  THR67       0.2028
    111  C         22.3450    5.3500   20.0470 C.2    67  THR67       0.2642
    112  O         22.1270    5.2650   21.2720 O.2    67  THR67      -0.2714
    113  CB        20.5910    5.4640   18.2460 C.3    67  THR67       0.1808
    114  OG1       19.8780    6.3560   17.3980 O.3    67  THR67      -0.2208
    115  CG2       19.5680    4.6520   19.0370 C.3    67  THR67       0.0379
    116  N         23.2810    4.6310   19.4180 N.am   68  ARG68      -0.1977
    117  CA        24.1050    3.6670   20.1530 C.3    68  ARG68       0.1597
    118  C         24.9380    4.3040   21.2620 C.2    68  ARG68       0.2287
    119  O         25.1590    3.6880   22.3150 O.2    68  ARG68      -0.2864
    120  CB        25.0980    2.9490   19.2300 C.3    68  ARG68       0.0334
    121  CG        24.5610    2.3570   17.9460 C.3    68  ARG68       0.0492
    122  CD        24.1040    0.9790   18.1240 C.3    68  ARG68       0.2205
    123  NE        24.1980    0.1130   16.9280 N.pl3  68  ARG68      -0.0865
    124  CZ        23.5640    0.3090   15.7780 C.cat  68  ARG68       0.5346
    125  NH1       22.7890    1.3710   15.5910 N.pl3  68  ARG68       0.1354
    126  NH2       23.5860   -0.6270   14.8420 N.pl3  68  ARG68       0.1354
    127  N          3.3640    4.2190   13.4080 N.3   206  MET206     -0.1245
    128  CA         2.8780    5.1890   12.4320 C.3   206  MET206      0.1570
    129  C          2.7130    4.4270   11.1370 C.2   206  MET206      0.2261
    130  O          3.6540    3.7590   10.6960 O.2   206  MET206     -0.2867
    131  CB         3.8780    6.3250   12.2010 C.3   206  MET206      0.0387
    132  CG         4.1900    7.1300   13.4310 C.3   206  MET206      0.0595
    133  SD         4.8990    8.7400   13.0610 S.3   206  MET206     -0.1393
    134  CE         6.4830    8.2760   12.2310 C.3   206  MET206      0.0692
    135  N          4.3280   13.3020    7.3820 N.3   214  ALA214     -0.1231
    136  CA         5.4210   13.9200    8.1330 C.3   214  ALA214      0.1694
    137  C          6.6930   13.9970    7.2960 C.2   214  ALA214      0.2591
    138  O          7.2320   15.0760    7.0590 O.2   214  ALA214     -0.2718
    139  CB         5.6840   13.1360    9.4160 C.3   214  ALA214      0.0304
    140  N          7.1830   12.8590    6.8340 N.am  215  ARG215     -0.1980
    141  CA         8.3970   12.8930    6.0420 C.3   215  ARG215      0.1597
    142  C          8.2530   13.7100    4.7580 C.2   215  ARG215      0.2287
    143  O          9.0960   13.6180    3.8690 O.2   215  ARG215     -0.2864
    144  CB         8.8650   11.4790    5.7010 C.3   215  ARG215      0.0334
    145  CG         9.3800   10.7130    6.8890 C.3   215  ARG215      0.0492
    146  CD        10.2820    9.6020    6.4320 C.3   215  ARG215      0.2205
    147  NE        10.8370    8.8720    7.5660 N.pl3 215  ARG215     -0.0865
    148  CZ        11.8120    7.9800    7.4610 C.cat 215  ARG215      0.5346
    149  NH1       12.3350    7.7200    6.2660 N.pl3 215  ARG215      0.1354
    150  NH2       12.2510    7.3340    8.5370 N.pl3 215  ARG215      0.1354
    151  N          9.3660   17.9330    6.0500 N.3   218  PHE218     -0.1241
    152  CA        10.7710   18.2180    6.3010 C.3   218  PHE218      0.1605
    153  C         11.6530   18.1040    5.0780 C.2   218  PHE218      0.2264
    154  O         12.6920   18.7610    4.9860 O.2   218  PHE218     -0.2867
    155  CB        11.3090   17.3130    7.4170 C.3   218  PHE218      0.0534
    156  CG        10.7030   17.5930    8.7710 C.ar  218  PHE218     -0.0203
    157  CD1        9.4290   17.1390    9.0860 C.ar  218  PHE218     -0.0042
    158  CD2       11.4050   18.3200    9.7230 C.ar  218  PHE218     -0.0042
    159  CE1        8.8640   17.3990   10.3240 C.ar  218  PHE218     -0.0003
    160  CE2       10.8440   18.5870   10.9700 C.ar  218  PHE218     -0.0003
    161  CZ         9.5730   18.1250   11.2710 C.ar  218  PHE218     -0.0000
    162  N         13.6870   15.8450    4.1680 N.3   220  ILE220     -0.1231
    163  CA        15.0530   15.4650    4.5270 C.3   220  ILE220      0.1692
    164  C         15.6100   14.4220    3.5210 C.2   220  ILE220      0.2591
    165  O         14.8930   13.5150    3.0660 O.2   220  ILE220     -0.2718
    166  CB        15.1030   14.8720    5.9560 C.3   220  ILE220      0.0266
    167  CG1       14.7120   15.9520    6.9720 C.3   220  ILE220      0.0019
    168  CG2       16.5080   14.3300    6.2650 C.3   220  ILE220      0.0020
    169  CD1       15.6520   17.1660    6.9970 C.3   220  ILE220      0.0001
    170  N         16.8750   14.5630    3.1430 N.am  221  GLN221     -0.1979
    171  CA        17.4540   13.5770    2.2430 C.3   221  GLN221      0.1601
    172  C         18.1970   12.5360    3.0680 C.2   221  GLN221      0.2287
    173  O         18.6640   12.8710    4.1830 O.2   221  GLN221     -0.2864
    174  CB        18.4210   14.2240    1.2720 C.3   221  GLN221      0.0394
    175  CG        17.7630   15.1180    0.2520 C.3   221  GLN221      0.0908
    176  CD        18.6970   15.3990   -0.9060 C.2   221  GLN221      0.2608
    177  OE1       18.9430   14.5200   -1.7450 O.2   221  GLN221     -0.2717
    178  NE2       19.2440   16.6210   -0.9540 N.am  221  GLN221     -0.0878
@<TRIPOS>BOND
     1   177   176    2
     2   178   176   am
     3   176   175    1
     4   175   174    1
     5   174   171    1
     6   171   172    1
     7   171   170    1
     8   165   164    2
     9   172   173    2
    10   170   164   am
    11   164   163    1
    12   143   142    2
    13   162   163    1
    14   163   166    1
    15   142   141    1
    16   154   153    2
    17   153   152    1
    18   144   141    1
    19   144   145    1
    20   166   168    1
    21   166   167    1
    22   141   140    1
    23   151   152    1
    24   149   148    1
    25   152   155    1
    26   146   145    1
    27   146   147    1
    28   140   137   am
    29   167   169    1
    30   138   137    2
    31   137   136    1
    32   135   136    1
    33   155   156    1
    34   148   147    2
    35   148   150    1
    36   136   139    1
    37   156   157   ar
    38   156   158   ar
    39   157   159   ar
    40    68    67    1
    41   158   160   ar
    42    85    83   am
    43   159   161   ar
    44    76    74   ar
    45    51    49    1
    46    67    66    1
    47   130   129    2
    48    66    65    1
    49   160   161   ar
    50    59    57    1
    51   129   128    1
    52    83    82    1
    53    83    84    2
    54    73    74    1
    55    73    70    1
    56    74    75   ar
    57    82    81    1
    58    72    71    2
    59    49    48    2
    60    49    50    1
    61    57    56    1
    62    57    58    1
    63   131   128    1
    64   131   132    1
    65   134   133    1
    66    48    47    1
    67    56    53    1
    68   128   127    1
    69    65    64    1
    70    23    21   ar
    71    23    22   ar
    72    71    70    1
    73    71    77   am
    74    21    19   ar
    75    70    69    1
    76    64    61    1
    77   133   132    1
    78    81    78    1
    79    54    53    1
    80    54    55    2
    81    22    20   ar
    82    77    78    1
    83    53    52    1
    84    19    18   ar
    85    78    79    1
    86    47    46    1
    87    20    18   ar
    88   108   106   am
    89    18    17    1
    90    61    62    1
    91    61    60    1
    92    62    63    2
    93    46    45    1
    94    12    11    1
    95   126   124    1
    96    89    88    2
    97    79    86   am
    98    79    80    2
    99    86    87    1
   100    17    14    1
   101   107   106    2
   102   106   105    1
   103    38    37    1
   104    38    39    1
   105    92    90    1
   106   125   124    1
   107    36    33    1
   108    11     9   ar
   109    11    10   ar
   110   124   123    2
   111    45    42    1
   112    41    39   am
   113    41    42    1
   114    88    87    1
   115    88    93   am
   116     9     7   ar
   117    39    40    2
   118    87    90    1
   119    10     8   ar
   120    14    13    1
   121    14    15    1
   122   105   104    1
   123    90    91    1
   124    42    43    1
   125    99    93    1
   126    99    98    1
   127   123   122    1
   128    27    26    2
   129    13     3   am
   130    93    94    1
   131     7     6   ar
   132    33    34    1
   133    33    32    1
   134   114   113    1
   135     8     6   ar
   136    24    15   am
   137    24    25    1
   138    15    16    2
   139    26    32   am
   140    26    25    1
   141    34    35    2
   142   104   101    1
   143     6     5    1
   144   121   122    1
   145   121   120    1
   146   101   100    1
   147   101   102    1
   148    43    44    2
   149    98    97    1
   150     3     2    1
   151     3     4    2
   152   113   115    1
   153   113   110    1
   154    25    28    1
   155   109   102   am
   156   109   110    1
   157    94    95    1
   158    94    97    1
   159    28    29    1
   160    96    95    2
   161     2     5    1
   162     2     1    1
   163   102   103    2
   164   110   111    1
   165   120   117    1
   166   116   111   am
   167   116   117    1
   168    29    31   am
   169    29    30    2
   170   111   112    2
   171   117   118    1
   172   118   119    2
