@<TRIPOS>MOLECULE
tmp/1f3fB00.pdb
 144 135 0 0 0
SMALL
GASTEIGER

@<TRIPOS>ATOM
      1  N        -13.0070   50.1480   45.3250 N.3    11  LYS11      -0.1245
      2  CA       -13.7060   48.8870   45.5600 C.3    11  LYS11       0.1561
      3  C        -13.5060   48.3850   46.9880 C.2    11  LYS11       0.2260
      4  O        -12.6630   48.9030   47.7210 O.2    11  LYS11      -0.2867
      5  CB       -13.2630   47.8560   44.5220 C.3    11  LYS11       0.0271
      6  CG       -13.6050   48.2940   43.1120 C.3    11  LYS11       0.0035
      7  CD       -12.9520   47.3310   42.1050 C.3    11  LYS11       0.0206
      8  CE       -13.2800   47.6950   40.6790 C.3    11  LYS11       0.1093
      9  NZ       -12.7240   46.6610   39.7160 N.3    11  LYS11      -0.1314
     10  N        -24.1510   48.6140   37.1620 N.3    50  HIS50      -0.1226
     11  CA       -22.8350   49.2100   36.9580 C.3    50  HIS50       0.1752
     12  C        -22.0010   48.3560   35.9940 C.2    50  HIS50       0.2596
     13  O        -21.3230   48.8740   35.0820 O.2    50  HIS50      -0.2718
     14  CB       -22.1020   49.3200   38.3050 C.3    50  HIS50       0.0759
     15  CG       -20.7200   49.8850   38.1940 C.ar   50  HIS50       0.0818
     16  ND1      -20.4820   51.2240   37.9920 N.ar   50  HIS50      -0.2268
     17  CD2      -19.5090   49.2820   38.1970 C.ar   50  HIS50       0.1154
     18  CE1      -19.1810   51.4250   37.8700 C.ar   50  HIS50       0.1986
     19  NE2      -18.5680   50.2620   37.9880 N.ar   50  HIS50      -0.2212
     20  N        -22.0530   47.0430   36.1900 N.am   51  TYR51      -0.1976
     21  CA       -21.2650   46.1420   35.3710 C.3    51  TYR51       0.1639
     22  C        -22.1100   45.4260   34.3460 C.2    51  TYR51       0.2290
     23  O        -21.7660   44.3270   33.9050 O.2    51  TYR51      -0.2864
     24  CB       -20.5530   45.1270   36.2670 C.3    51  TYR51       0.0560
     25  CG       -19.3900   45.7240   37.0160 C.ar   51  TYR51      -0.0198
     26  CD1      -18.3190   46.2830   36.3210 C.ar   51  TYR51      -0.0009
     27  CD2      -19.3440   45.7330   38.4170 C.ar   51  TYR51      -0.0009
     28  CE1      -17.2240   46.8320   36.9960 C.ar   51  TYR51       0.0417
     29  CE2      -18.2460   46.2860   39.0950 C.ar   51  TYR51       0.0417
     30  CZ       -17.1930   46.8270   38.3720 C.ar   51  TYR51       0.1957
     31  OH       -16.0730   47.3680   38.9960 O.3    51  TYR51      -0.2866
     32  N        -22.4530   45.7410   31.2920 N.3    53  GLU53      -0.1231
     33  CA       -21.7770   45.3540   30.0650 C.3    53  GLU53       0.1699
     34  C        -21.1290   43.9720   30.1780 C.2    53  GLU53       0.2592
     35  O        -20.8110   43.3340   29.1680 O.2    53  GLU53      -0.2718
     36  CB       -20.7270   46.4030   29.7060 C.3    53  GLU53       0.0402
     37  CG       -19.4230   46.2440   30.4510 C.3    53  GLU53       0.1161
     38  CD       -18.4930   47.4150   30.2470 C.2    53  GLU53       0.3649
     39  OE1      -18.4920   48.3280   31.1080 O.co2  53  GLU53      -0.2457
     40  OE2      -17.7760   47.4270   29.2200 O.co2  53  GLU53      -0.2457
     41  N        -20.9410   43.4970   31.4020 N.am   54  HIS54      -0.1976
     42  CA       -20.3120   42.1990   31.5960 C.3    54  HIS54       0.1656
     43  C        -21.3010   41.1230   32.0690 C.2    54  HIS54       0.2291
     44  O        -20.8950   40.0100   32.3980 O.2    54  HIS54      -0.2864
     45  CB       -19.1940   42.3200   32.6450 C.3    54  HIS54       0.0771
     46  CG       -18.1760   43.3760   32.3390 C.ar   54  HIS54       0.0820
     47  ND1      -17.4410   43.3860   31.1740 N.ar   54  HIS54      -0.2267
     48  CD2      -17.7320   44.4300   33.0710 C.ar   54  HIS54       0.1154
     49  CE1      -16.5850   44.3940   31.1990 C.ar   54  HIS54       0.1986
     50  NE2      -16.7410   45.0430   32.3390 N.ar   54  HIS54      -0.2212
     51  N        -20.5960   37.7350   30.8160 N.3    57  ARG57      -0.1245
     52  CA       -19.2570   37.1990   31.0370 C.3    57  ARG57       0.1563
     53  C        -19.1720   36.2820   32.2730 C.2    57  ARG57       0.2260
     54  O        -19.8820   36.4720   33.2620 O.2    57  ARG57      -0.2867
     55  CB       -18.2780   38.3640   31.1660 C.3    57  ARG57       0.0307
     56  CG       -18.1900   39.2270   29.9100 C.3    57  ARG57       0.0489
     57  CD       -17.4740   38.4720   28.8120 C.3    57  ARG57       0.2205
     58  NE       -16.1500   38.0820   29.2930 N.pl3  57  ARG57      -0.0865
     59  CZ       -15.4750   37.0120   28.8810 C.cat  57  ARG57       0.5346
     60  NH1      -15.9910   36.2030   27.9590 N.pl3  57  ARG57       0.1354
     61  NH2      -14.2900   36.7390   29.4230 N.pl3  57  ARG57       0.1354
     62  N        -16.9040   35.9090   34.7610 N.3    59  PHE59      -0.1241
     63  CA       -16.4940   36.5110   36.0350 C.3    59  PHE59       0.1605
     64  C        -17.5590   37.4540   36.6080 C.2    59  PHE59       0.2264
     65  O        -17.4450   37.8980   37.7500 O.2    59  PHE59      -0.2867
     66  CB       -15.1880   37.2830   35.8280 C.3    59  PHE59       0.0534
     67  CG       -15.3450   38.4900   34.9470 C.ar   59  PHE59      -0.0203
     68  CD1      -15.7920   39.6970   35.4750 C.ar   59  PHE59      -0.0042
     69  CD2      -15.1050   38.4050   33.5790 C.ar   59  PHE59      -0.0042
     70  CE1      -16.0000   40.8050   34.6530 C.ar   59  PHE59      -0.0003
     71  CE2      -15.3110   39.5100   32.7510 C.ar   59  PHE59      -0.0003
     72  CZ       -15.7590   40.7090   33.2900 C.ar   59  PHE59      -0.0000
     73  N        -17.7750   39.0740   40.3990 N.3    63  LEU63      -0.1245
     74  CA       -17.5280   40.5040   40.4240 C.3    63  LEU63       0.1561
     75  C        -18.6130   41.2060   41.2080 C.2    63  LEU63       0.2260
     76  O        -18.3220   42.0110   42.1000 O.2    63  LEU63      -0.2867
     77  CB       -17.4730   41.0390   38.9970 C.3    63  LEU63       0.0270
     78  CG       -17.4480   42.5570   38.8160 C.3    63  LEU63       0.0019
     79  CD1      -16.1710   43.1460   39.4370 C.3    63  LEU63       0.0001
     80  CD2      -17.5140   42.8540   37.3320 C.3    63  LEU63       0.0001
     81  N         -8.2700   56.8100   33.8530 N.3    87  ARG87      -0.1245
     82  CA        -7.9690   55.4130   33.5640 C.3    87  ARG87       0.1563
     83  C         -6.4590   55.2320   33.4620 C.2    87  ARG87       0.2260
     84  O         -5.9230   54.2240   33.8850 O.2    87  ARG87      -0.2867
     85  CB        -8.5980   54.9900   32.2490 C.3    87  ARG87       0.0307
     86  CG       -10.0700   55.2230   32.2070 C.3    87  ARG87       0.0489
     87  CD       -10.7440   53.9350   31.9580 C.3    87  ARG87       0.2205
     88  NE       -10.7570   53.1080   33.1470 N.pl3  87  ARG87      -0.0865
     89  CZ       -11.0130   51.8030   33.1270 C.cat  87  ARG87       0.5346
     90  NH1      -11.2550   51.1900   31.9680 N.pl3  87  ARG87       0.1354
     91  NH2      -11.0980   51.1310   34.2670 N.pl3  87  ARG87       0.1354
     92  N         -6.4380   46.5390   33.3890 N.3    93  THR93      -0.1218
     93  CA        -7.2140   45.5800   34.1820 C.3    93  THR93       0.1862
     94  C         -6.4020   44.7470   35.1530 C.2    93  THR93       0.2287
     95  O         -6.7770   44.6100   36.3180 O.2    93  THR93      -0.2866
     96  CB        -8.0410   44.6600   33.2640 C.3    93  THR93       0.1770
     97  OG1       -8.8130   45.4830   32.3880 O.3    93  THR93      -0.2211
     98  CG2       -8.9990   43.7870   34.0860 C.3    93  THR93       0.0375
     99  N         -3.2380   50.8110   40.3190 N.3   104  ARG104     -0.1245
    100  CA        -3.1230   49.3440   40.3460 C.3   104  ARG104      0.1563
    101  C         -1.6740   48.8770   40.2700 C.2   104  ARG104      0.2260
    102  O         -1.3090   47.8430   40.8670 O.2   104  ARG104     -0.2867
    103  CB        -3.9210   48.7160   39.1960 C.3   104  ARG104      0.0307
    104  CG        -5.4090   48.8290   39.3830 C.3   104  ARG104      0.0489
    105  CD        -6.1620   48.4760   38.0980 C.3   104  ARG104      0.2205
    106  NE        -7.6110   48.6090   38.2720 N.pl3 104  ARG104     -0.0865
    107  CZ        -8.4840   48.5820   37.2670 C.cat 104  ARG104      0.5346
    108  NH1       -8.0410   48.4250   36.0330 N.pl3 104  ARG104      0.1354
    109  NH2       -9.7860   48.7400   37.4800 N.pl3 104  ARG104      0.1354
    110  N         -6.2930   40.5940   39.3250 N.3   111  VAL111     -0.1231
    111  CA        -7.3800   41.1900   38.5550 C.3   111  VAL111      0.1692
    112  C         -8.7060   41.3400   39.3280 C.2   111  VAL111      0.2592
    113  O         -9.4390   42.3140   39.1170 O.2   111  VAL111     -0.2718
    114  CB        -7.6780   40.3620   37.2810 C.3   111  VAL111      0.0266
    115  CG1       -8.9410   40.8540   36.6360 C.3   111  VAL111      0.0020
    116  CG2       -6.5150   40.4540   36.3090 C.3   111  VAL111      0.0020
    117  N         -9.0180   40.3830   40.2070 N.am  112  GLY112     -0.1957
    118  CA       -10.2540   40.4390   40.9760 C.3   112  GLY112      0.1869
    119  C        -10.1930   41.3040   42.2200 C.2   112  GLY112      0.2309
    120  O        -11.1900   41.4840   42.9160 O.2   112  GLY112     -0.2863
    121  N         -8.5490   44.5410   42.1620 N.3   114  ASN114     -0.1240
    122  CA        -7.7790   45.5730   41.5160 C.3   114  ASN114      0.1653
    123  C         -8.0510   46.9840   41.9910 C.2   114  ASN114      0.2266
    124  O         -7.9010   47.9570   41.2600 O.2   114  ASN114     -0.2867
    125  CB        -7.8080   45.4080   39.9890 C.3   114  ASN114      0.1155
    126  CG        -9.1420   45.6560   39.3830 C.2   114  ASN114      0.2627
    127  OD1      -10.1010   45.9890   40.0630 O.2   114  ASN114     -0.2716
    128  ND2       -9.2100   45.5060   38.0400 N.am  114  ASN114     -0.0877
    129  N        -12.2130   51.2320   40.3740 N.3   117  GLY117     -0.1210
    130  CA       -12.8190   51.0600   39.0670 C.3   117  GLY117      0.1956
    131  C        -13.0630   52.4640   38.5200 C.2   117  GLY117      0.2612
    132  O        -13.3210   53.3930   39.2770 O.2   117  GLY117     -0.2717
    133  N        -12.9990   52.6370   37.2110 N.am  118  GLY118     -0.1956
    134  CA       -13.2450   53.9660   36.6800 C.3   118  GLY118      0.1869
    135  C        -13.9680   53.8570   35.3580 C.2   118  GLY118      0.2309
    136  O        -13.7970   52.8600   34.6470 O.2   118  GLY118     -0.2863
    137  N        -14.9450   54.0860   31.5240 N.3   120  ASP120     -0.1239
    138  CA       -14.0190   53.9400   30.4220 C.3   120  ASP120      0.1674
    139  C        -14.3060   54.7860   29.1840 C.2   120  ASP120      0.2266
    140  O        -13.5570   54.7320   28.2180 O.2   120  ASP120     -0.2867
    141  CB       -13.8530   52.4550   30.0620 C.3   120  ASP120      0.1410
    142  CG       -15.1210   51.8310   29.4990 C.2   120  ASP120      0.3668
    143  OD1      -16.0910   52.5560   29.1970 O.co2 120  ASP120     -0.2456
    144  OD2      -15.1370   50.5990   29.3560 O.co2 120  ASP120     -0.2456
@<TRIPOS>BOND
     1    60    59    1
     2   140   139    2
     3    57    58    1
     4    57    56    1
     5    59    58    2
     6    59    61    1
     7    35    34    2
     8   139   138    1
     9   143   142   ar
    10    40    38   ar
    11   144   142   ar
    12   142   141    1
    13    36    33    1
    14    36    37    1
    15    56    55    1
    16   141   138    1
    17    33    34    1
    18    33    32    1
    19    34    41   am
    20    38    37    1
    21    38    39   ar
    22   138   137    1
    23    51    52    1
    24    52    55    1
    25    52    53    1
    26    47    49   ar
    27    47    46   ar
    28    49    50   ar
    29    41    42    1
    30    42    43    1
    31    42    45    1
    32    87    86    1
    33    87    88    1
    34    90    89    1
    35    43    44    2
    36    86    85    1
    37    85    82    1
    38    53    54    2
    39    46    45    1
    40    46    48   ar
    41    50    48   ar
    42    97    96    1
    43    71    72   ar
    44    71    69   ar
    45    89    88    2
    46    89    91    1
    47    96    98    1
    48    96    93    1
    49    72    70   ar
    50    92    93    1
    51    83    82    1
    52    83    84    2
    53    82    81    1
    54    69    67   ar
    55    23    22    2
    56    93    94    1
    57    22    21    1
    58   136   135    2
    59    70    68   ar
    60    62    63    1
    61    67    68   ar
    62    67    66    1
    63    13    12    2
    64    94    95    2
    65   135   134    1
    66    21    20    1
    67    21    24    1
    68    66    63    1
    69    12    20   am
    70    12    11    1
    71   108   107    1
    72    63    64    1
    73    24    25    1
    74   116   114    1
    75    26    28   ar
    76    26    25   ar
    77    64    65    2
    78   115   114    1
    79   134   133    1
    80    11    10    1
    81    11    14    1
    82    28    30   ar
    83    25    27   ar
    84   133   131   am
    85   107   109    1
    86   107   106    2
    87   114   111    1
    88    80    78    1
    89    18    19   ar
    90    18    16   ar
    91    19    17   ar
    92    16    15   ar
    93   128   126   am
    94   105   106    1
    95   105   104    1
    96    15    17   ar
    97    15    14    1
    98    30    31    1
    99    30    29   ar
   100    27    29   ar
   101   131   130    1
   102   131   132    2
   103   111   110    1
   104   111   112    1
   105    78    77    1
   106    78    79    1
   107    77    74    1
   108   130   129    1
   109   113   112    2
   110   103   104    1
   111   103   100    1
   112   112   117   am
   113   126   125    1
   114   126   127    2
   115     9     8    1
   116   125   122    1
   117   117   118    1
   118   101   100    1
   119   101   102    2
   120    99   100    1
   121    73    74    1
   122    74    75    1
   123     8     7    1
   124   118   119    1
   125    75    76    2
   126   124   123    2
   127   122   123    1
   128   122   121    1
   129     7     6    1
   130   119   120    2
   131     6     5    1
   132     5     2    1
   133     1     2    1
   134     2     3    1
   135     3     4    2
