@<TRIPOS>MOLECULE
tmp/1f3lA00.pdb
 226 216 0 0 0
SMALL
GASTEIGER

@<TRIPOS>ATOM
      1  N         78.0270   44.5830  208.2480 N.3     2  LEU2       -0.1245
      2  CA        77.2120   44.8940  209.4100 C.3     2  LEU2        0.1561
      3  C         76.8940   43.6200  210.1850 C.2     2  LEU2        0.2260
      4  O         76.2840   43.6660  211.2550 O.2     2  LEU2       -0.2867
      5  CB        75.9180   45.5900  208.9750 C.3     2  LEU2        0.0270
      6  CG        75.8080   47.1030  209.2050 C.3     2  LEU2        0.0019
      7  CD1       74.9520   47.3500  210.4320 C.3     2  LEU2        0.0001
      8  CD2       77.1850   47.7330  209.3780 C.3     2  LEU2        0.0001
      9  N         79.1220   52.0820  219.2820 N.3    10  TYR10      -0.1227
     10  CA        77.7160   51.9560  218.8850 C.3    10  TYR10       0.1736
     11  C         76.8010   51.3900  219.9830 C.2    10  TYR10       0.2595
     12  O         75.9440   52.0980  220.5120 O.2    10  TYR10      -0.2718
     13  CB        77.5980   51.0980  217.6070 C.3    10  TYR10       0.0548
     14  CG        76.1900   51.0550  217.0480 C.ar   10  TYR10      -0.0200
     15  CD1       75.5740   52.2140  216.5710 C.ar   10  TYR10      -0.0009
     16  CD2       75.4470   49.8740  217.0650 C.ar   10  TYR10      -0.0009
     17  CE1       74.2520   52.2010  216.1320 C.ar   10  TYR10       0.0417
     18  CE2       74.1240   49.8500  216.6290 C.ar   10  TYR10       0.0417
     19  CZ        73.5340   51.0170  216.1690 C.ar   10  TYR10       0.1957
     20  OH        72.2190   51.0120  215.7740 O.3    10  TYR10      -0.2866
     21  N         76.9860   50.1170  220.3220 N.am   11  PHE11      -0.1976
     22  CA        76.1670   49.4740  221.3460 C.3    11  PHE11       0.1639
     23  C         76.3860   50.0740  222.7420 C.2    11  PHE11       0.2290
     24  O         75.5920   49.8600  223.6520 O.2    11  PHE11      -0.2864
     25  CB        76.4440   47.9650  221.3560 C.3    11  PHE11       0.0560
     26  CG        75.8860   47.2370  220.1550 C.ar   11  PHE11      -0.0200
     27  CD1       76.7100   46.4390  219.3570 C.ar   11  PHE11      -0.0042
     28  CD2       74.5370   47.3550  219.8110 C.ar   11  PHE11      -0.0042
     29  CE1       76.1960   45.7680  218.2270 C.ar   11  PHE11      -0.0003
     30  CE2       74.0200   46.6910  218.6900 C.ar   11  PHE11      -0.0003
     31  CZ        74.8500   45.8970  217.8990 C.ar   11  PHE11      -0.0000
     32  N         73.9320   52.9160  223.3850 N.3    14  TYR14      -0.1241
     33  CA        72.5950   52.4090  223.6180 C.3    14  TYR14       0.1605
     34  C         72.5060   51.7220  224.9760 C.2    14  TYR14       0.2264
     35  O         71.4860   51.1160  225.3170 O.2    14  TYR14      -0.2867
     36  CB        72.2110   51.4560  222.4940 C.3    14  TYR14       0.0534
     37  CG        71.6590   52.1880  221.3020 C.ar   14  TYR14      -0.0201
     38  CD1       72.3360   52.1910  220.0820 C.ar   14  TYR14      -0.0009
     39  CD2       70.4560   52.8920  221.3960 C.ar   14  TYR14      -0.0009
     40  CE1       71.8270   52.8780  218.9820 C.ar   14  TYR14       0.0417
     41  CE2       69.9350   53.5810  220.3060 C.ar   14  TYR14       0.0417
     42  CZ        70.6240   53.5690  219.1020 C.ar   14  TYR14       0.1957
     43  OH        70.1000   54.2390  218.0220 O.3    14  TYR14      -0.2866
     44  N         67.4050   56.6090  225.2370 N.3    20  HIS20      -0.1241
     45  CA        66.0830   55.9950  225.2570 C.3    20  HIS20       0.1621
     46  C         65.0470   56.9530  225.8140 C.2    20  HIS20       0.2264
     47  O         63.8600   56.8610  225.4910 O.2    20  HIS20      -0.2867
     48  CB        66.1200   54.7140  226.0730 C.3    20  HIS20       0.0745
     49  CG        66.9840   53.6510  225.4710 C.ar   20  HIS20       0.0817
     50  ND1       68.2730   53.4090  225.8960 N.ar   20  HIS20      -0.2268
     51  CD2       66.7460   52.7730  224.4690 C.ar   20  HIS20       0.1154
     52  CE1       68.7930   52.4260  225.1830 C.ar   20  HIS20       0.1986
     53  NE2       67.8860   52.0240  224.3100 N.ar   20  HIS20      -0.2212
     54  N         63.9710   58.9250  222.8110 N.3    23  MET23      -0.1230
     55  CA        63.0830   58.2120  221.8850 C.3    23  MET23       0.1702
     56  C         61.6720   58.0840  222.4440 C.2    23  MET23       0.2592
     57  O         60.6910   58.2950  221.7310 O.2    23  MET23      -0.2718
     58  CB        63.6150   56.8090  221.5960 C.3    23  MET23       0.0401
     59  CG        64.8850   56.7860  220.7910 C.3    23  MET23       0.0596
     60  SD        65.6330   55.1460  220.7750 S.3    23  MET23      -0.1393
     61  CE        65.8650   54.9520  219.0460 C.3    23  MET23       0.0692
     62  N         61.5890   57.7400  223.7290 N.am   24  LEU24      -0.1980
     63  CA        60.3090   57.5680  224.4110 C.3    24  LEU24       0.1596
     64  C         59.5660   58.8840  224.5180 C.2    24  LEU24       0.2287
     65  O         58.3330   58.9080  224.5220 O.2    24  LEU24      -0.2864
     66  CB        60.5310   56.9730  225.8010 C.3    24  LEU24       0.0297
     67  CG        61.1460   55.5700  225.7760 C.3    24  LEU24       0.0022
     68  CD1       61.8060   55.2670  227.1140 C.3    24  LEU24       0.0001
     69  CD2       60.0630   54.5350  225.4690 C.3    24  LEU24       0.0001
     70  N         56.8530   59.5340  217.0680 N.3    29  ARG29      -0.1245
     71  CA        57.4490   58.2120  216.8910 C.3    29  ARG29       0.1563
     72  C         56.8060   57.1090  217.7350 C.2    29  ARG29       0.2260
     73  O         56.3500   56.1010  217.1950 O.2    29  ARG29      -0.2867
     74  CB        58.9400   58.2700  217.2110 C.3    29  ARG29       0.0307
     75  CG        59.6130   56.9090  217.2340 C.3    29  ARG29       0.0489
     76  CD        60.9230   56.9490  218.0180 C.3    29  ARG29       0.2205
     77  NE        60.7390   56.4920  219.3940 N.pl3  29  ARG29      -0.0865
     78  CZ        61.0080   55.2560  219.8120 C.cat  29  ARG29       0.5346
     79  NH1       61.4770   54.3550  218.9620 N.pl3  29  ARG29       0.1354
     80  NH2       60.8030   54.9100  221.0790 N.pl3  29  ARG29       0.1354
     81  N         61.0380   41.2610  218.3140 N.3    51  ASP51      -0.1225
     82  CA        61.3920   42.6760  218.4400 C.3    51  ASP51       0.1805
     83  C         62.8970   42.8080  218.2200 C.2    51  ASP51       0.2598
     84  O         63.6920   42.4710  219.0900 O.2    51  ASP51      -0.2718
     85  CB        60.9980   43.1710  219.8450 C.3    51  ASP51       0.1424
     86  CG        61.1650   44.6790  220.0300 C.2    51  ASP51       0.3668
     87  OD1       60.7270   45.1930  221.0820 O.co2  51  ASP51      -0.2456
     88  OD2       61.7320   45.3510  219.1460 O.co2  51  ASP51      -0.2456
     89  N         63.2960   43.2730  217.0440 N.am   52  VAL52      -0.1966
     90  CA        64.7200   43.4180  216.7440 C.3    52  VAL52       0.1727
     91  C         65.2260   44.7340  217.3410 C.2    52  VAL52       0.2617
     92  O         64.8380   45.8140  216.8950 O.2    52  VAL52      -0.2715
     93  CB        64.9610   43.3940  215.2020 C.3    52  VAL52       0.0290
     94  CG1       66.4380   43.5870  214.8960 C.3    52  VAL52       0.0023
     95  CG2       64.4540   42.0800  214.6140 C.3    52  VAL52       0.0023
     96  N         66.0810   44.6380  218.3580 N.am   53  GLY53      -0.1940
     97  CA        66.5970   45.8330  219.0200 C.3    53  GLY53       0.2014
     98  C         65.5440   46.4220  219.9520 C.2    53  GLY53       0.2639
     99  O         65.1120   47.5690  219.7900 O.2    53  GLY53      -0.2714
    100  N         65.1570   45.6360  220.9530 N.am   54  CYS54      -0.1953
    101  CA        64.1170   46.0170  221.9070 C.3    54  CYS54       0.1843
    102  C         64.3430   47.2080  222.8340 C.2    54  CYS54       0.2626
    103  O         63.3810   47.7670  223.3580 O.2    54  CYS54      -0.2714
    104  CB        63.7290   44.7970  222.7540 C.3    54  CYS54       0.0997
    105  SG        64.9880   44.2310  223.9370 S.3    54  CYS54      -0.0797
    106  N         65.5890   47.6110  223.0410 N.am   55  GLY55      -0.1940
    107  CA        65.8280   48.7280  223.9390 C.3    55  GLY55       0.2014
    108  C         65.2640   48.4430  225.3320 C.2    55  GLY55       0.2639
    109  O         65.5900   47.4200  225.9340 O.2    55  GLY55      -0.2714
    110  N         64.4130   49.3380  225.8360 N.am   56  THR56      -0.1950
    111  CA        63.8000   49.1720  227.1600 C.3    56  THR56       0.1897
    112  C         62.6580   48.1410  227.1730 C.2    56  THR56       0.2313
    113  O         62.1490   47.7810  228.2420 O.2    56  THR56      -0.2863
    114  CB        63.2500   50.5150  227.7090 C.3    56  THR56       0.1794
    115  OG1       62.1850   50.9820  226.8730 O.3    56  THR56      -0.2208
    116  CG2       64.3470   51.5610  227.7550 C.3    56  THR56       0.0378
    117  N         59.7250   48.5320  225.3380 N.3    58  ILE58      -0.1231
    118  CA        58.4410   49.1720  225.0540 C.3    58  ILE58       0.1692
    119  C         57.5780   48.5510  223.9390 C.2    58  ILE58       0.2591
    120  O         56.3930   48.2990  224.1440 O.2    58  ILE58      -0.2718
    121  CB        58.6470   50.6940  224.7640 C.3    58  ILE58       0.0266
    122  CG1       57.3050   51.3660  224.4760 C.3    58  ILE58       0.0019
    123  CG2       59.6150   50.8920  223.5950 C.3    58  ILE58       0.0020
    124  CD1       56.4540   51.6130  225.7020 C.3    58  ILE58       0.0001
    125  N         58.1600   48.3070  222.7670 N.am   59  LEU59      -0.1980
    126  CA        57.4040   47.7290  221.6490 C.3    59  LEU59       0.1596
    127  C         56.8800   46.3340  221.9290 C.2    59  LEU59       0.2287
    128  O         55.7860   45.9760  221.4830 O.2    59  LEU59      -0.2864
    129  CB        58.2610   47.6820  220.3870 C.3    59  LEU59       0.0297
    130  CG        58.7980   49.0180  219.8850 C.3    59  LEU59       0.0022
    131  CD1       59.3830   48.8310  218.4980 C.3    59  LEU59       0.0001
    132  CD2       57.6780   50.0590  219.8730 C.3    59  LEU59       0.0001
    133  N         65.1710   41.0400  221.6080 N.3    74  VAL74      -0.1231
    134  CA        66.6330   40.9930  221.5730 C.3    74  VAL74       0.1692
    135  C         67.3160   42.3540  221.4710 C.2    74  VAL74       0.2592
    136  O         66.8130   43.2710  220.8310 O.2    74  VAL74      -0.2718
    137  CB        67.1360   40.1420  220.3660 C.3    74  VAL74       0.0266
    138  CG1       68.6180   39.8650  220.4960 C.3    74  VAL74       0.0020
    139  CG2       66.3650   38.8400  220.2820 C.3    74  VAL74       0.0020
    140  N         68.4740   42.4680  222.1100 N.am   75  ASP75      -0.1960
    141  CA        69.2720   43.6830  222.0680 C.3    75  ASP75       0.1840
    142  C         70.6990   43.3190  222.4430 C.2    75  ASP75       0.2622
    143  O         70.9250   42.4430  223.2850 O.2    75  ASP75      -0.2715
    144  CB        68.7270   44.7490  223.0180 C.3    75  ASP75       0.1450
    145  CG        69.0750   46.1600  222.5680 C.2    75  ASP75       0.3671
    146  OD1       70.2750   46.4680  222.4380 O.co2  75  ASP75      -0.2456
    147  OD2       68.1520   46.9660  222.3370 O.co2  75  ASP75      -0.2456
    148  N         71.6590   43.9840  221.8040 N.am   76  GLN76      -0.1963
    149  CA        73.0680   43.7280  222.0490 C.3    76  GLN76       0.1733
    150  C         73.6580   44.6100  223.1410 C.2    76  GLN76       0.2617
    151  O         74.6810   44.2630  223.7270 O.2    76  GLN76      -0.2715
    152  CB        73.8570   43.9070  220.7610 C.3    76  GLN76       0.0408
    153  CG        75.3670   43.8360  220.9920 C.3    76  GLN76       0.0908
    154  CD        75.8900   42.5380  221.4110 C.2    76  GLN76       0.2608
    155  OE1       75.6580   41.4270  220.8570 O.2    76  GLN76      -0.2717
    156  NE2       76.7420   42.5810  222.4440 N.am   76  GLN76      -0.0878
    157  N         73.0370   45.7520  223.4200 N.am   77  SER77      -0.1950
    158  CA        73.5710   46.6330  224.4560 C.3    77  SER77       0.1924
    159  C         73.1600   46.1930  225.8520 C.2    77  SER77       0.2314
    160  O         72.3150   45.3190  226.0140 O.2    77  SER77      -0.2863
    161  CB        73.1360   48.0830  224.2250 C.3    77  SER77       0.2116
    162  OG        71.8290   48.1400  223.7000 O.3    77  SER77      -0.2180
    163  N         72.4200   40.0290  222.9940 N.3   101  GLY101     -0.1210
    164  CA        73.2790   39.6910  221.8710 C.3   101  GLY101      0.1956
    165  C         72.8760   40.3300  220.5550 C.2   101  GLY101      0.2612
    166  O         71.8990   41.0750  220.4870 O.2   101  GLY101     -0.2717
    167  N         73.6540   40.0330  219.5150 N.am  102  LYS102     -0.1965
    168  CA        73.4340   40.5410  218.1600 C.3   102  LYS102      0.1728
    169  C         72.4140   39.6390  217.4790 C.2   102  LYS102      0.2616
    170  O         72.5740   38.4190  217.4770 O.2   102  LYS102     -0.2715
    171  CB        74.7530   40.5070  217.3790 C.3   102  LYS102      0.0311
    172  CG        74.9850   41.6690  216.4410 C.3   102  LYS102      0.0038
    173  CD        76.4730   41.9170  216.2410 C.3   102  LYS102      0.0206
    174  CE        76.7280   42.7960  215.0190 C.3   102  LYS102      0.1093
    175  NZ        78.0260   42.4880  214.3460 N.3   102  LYS102     -0.1314
    176  N         71.3770   40.2260  216.8910 N.am  103  ILE103     -0.1963
    177  CA        70.3460   39.4230  216.2410 C.3   103  ILE103      0.1727
    178  C         70.8670   38.4460  215.1870 C.2   103  ILE103      0.2616
    179  O         70.2410   37.4210  214.9310 O.2   103  ILE103     -0.2715
    180  CB        69.2490   40.3060  215.5890 C.3   103  ILE103      0.0290
    181  CG1       68.0660   39.4320  215.1530 C.3   103  ILE103      0.0022
    182  CG2       69.8140   41.0510  214.3860 C.3   103  ILE103      0.0023
    183  CD1       67.4390   38.6260  216.2670 C.3   103  ILE103      0.0001
    184  N         72.0150   38.7430  214.5880 N.am  104  GLU104     -0.1977
    185  CA        72.5600   37.8620  213.5560 C.3   104  GLU104      0.1602
    186  C         73.4530   36.7410  214.0780 C.2   104  GLU104      0.2287
    187  O         74.0130   35.9830  213.2850 O.2   104  GLU104     -0.2864
    188  CB        73.3350   38.6740  212.5100 C.3   104  GLU104      0.0415
    189  CG        74.0520   39.8790  213.0710 C.3   104  GLU104      0.1163
    190  CD        73.3890   41.1810  212.6850 C.2   104  GLU104      0.3649
    191  OE1       73.2150   41.4250  211.4760 O.co2 104  GLU104     -0.2457
    192  OE2       73.0430   41.9630  213.5890 O.co2 104  GLU104     -0.2457
    193  N         62.0890   49.4780  215.4910 N.3   119  GLU119     -0.1245
    194  CA        62.3040   50.8980  215.2710 C.3   119  GLU119      0.1567
    195  C         63.8070   50.9470  215.0690 C.2   119  GLU119      0.2260
    196  O         64.5770   51.0520  216.0280 O.2   119  GLU119     -0.2867
    197  CB        61.9020   51.7200  216.4850 C.3   119  GLU119      0.0388
    198  CG        61.6710   53.1850  216.1500 C.3   119  GLU119      0.1160
    199  CD        62.9710   53.9560  216.0080 C.2   119  GLU119      0.3649
    200  OE1       63.6200   53.8500  214.9400 O.co2 119  GLU119     -0.2457
    201  OE2       63.3480   54.6700  216.9690 O.co2 119  GLU119     -0.2457
    202  N         71.1820   49.9230  210.5860 N.3   130  MET130     -0.1245
    203  CA        70.4600   48.8800  211.3220 C.3   130  MET130      0.1570
    204  C         69.4630   48.1060  210.4570 C.2   130  MET130      0.2261
    205  O         69.1310   46.9620  210.7650 O.2   130  MET130     -0.2867
    206  CB        69.7330   49.4810  212.5360 C.3   130  MET130      0.0387
    207  CG        69.2980   48.4510  213.5870 C.3   130  MET130      0.0595
    208  SD        68.3730   49.1360  215.0230 S.3   130  MET130     -0.1393
    209  CE        67.4000   47.7070  215.5400 C.3   130  MET130      0.0692
    210  N         70.4990   44.6340  209.6060 N.3   133  SER133     -0.1217
    211  CA        70.2820   43.6100  210.6240 C.3   133  SER133      0.1889
    212  C         68.8370   43.1020  210.5960 C.2   133  SER133      0.2288
    213  O         68.5920   41.9100  210.7840 O.2   133  SER133     -0.2866
    214  CB        70.6080   44.1740  212.0110 C.3   133  SER133      0.2089
    215  OG        71.8820   44.7970  212.0330 O.3   133  SER133     -0.2183
    216  N         78.6570   52.1720  209.4760 N.3   303  ARG303     -0.1245
    217  CA        77.4940   52.7490  210.1290 C.3   303  ARG303      0.1563
    218  C         77.3110   54.2000  209.7460 C.2   303  ARG303      0.2260
    219  O         76.2920   54.8130  210.0660 O.2   303  ARG303     -0.2867
    220  CB        77.6070   52.5990  211.6420 C.3   303  ARG303      0.0307
    221  CG        77.3400   51.1760  212.1120 C.3   303  ARG303      0.0489
    222  CD        76.7860   51.1460  213.5250 C.3   303  ARG303      0.2205
    223  NE        76.7590   49.7850  214.0380 N.pl3 303  ARG303     -0.0865
    224  CZ        75.7530   48.9370  213.8490 C.cat 303  ARG303      0.5346
    225  NH1       74.6840   49.3130  213.1560 N.pl3 303  ARG303      0.1354
    226  NH2       75.8220   47.7030  214.3430 N.pl3 303  ARG303      0.1354
@<TRIPOS>BOND
     1     1     2    1
     2     5     6    1
     3     5     2    1
     4     6     8    1
     5     6     7    1
     6     2     3    1
     7   216   217    1
     8   210   211    1
     9   218   219    2
    10   218   217    1
    11   217   220    1
    12     3     4    2
    13   204   205    2
    14   204   203    1
    15   202   203    1
    16   212   211    1
    17   212   213    2
    18   211   214    1
    19   203   206    1
    20   191   190   ar
    21   220   221    1
    22   214   215    1
    23   221   222    1
    24   188   189    1
    25   188   185    1
    26   206   207    1
    27   190   189    1
    28   190   192   ar
    29   225   224    1
    30   187   186    2
    31   222   223    1
    32   185   186    1
    33   185   184    1
    34   207   208    1
    35   224   223    2
    36   224   226    1
    37   175   174    1
    38   182   180    1
    39   184   178   am
    40    95    93    1
    41    94    93    1
    42   179   178    2
    43   200   199   ar
    44   174   173    1
    45   208   209    1
    46   195   194    1
    47   195   196    2
    48   181   180    1
    49   181   183    1
    50   178   177    1
    51    93    90    1
    52   194   193    1
    53   194   197    1
    54   180   177    1
    55    20    19    1
    56   199   198    1
    57   199   201   ar
    58    17    19   ar
    59    17    15   ar
    60   198   197    1
    61    19    18   ar
    62   173   172    1
    63   177   176    1
    64   172   171    1
    65    15    14   ar
    66    18    16   ar
    67    90    89    1
    68    90    91    1
    69   176   169   am
    70    71    70    1
    71    71    74    1
    72    71    72    1
    73    92    91    2
    74    89    83   am
    75    14    16   ar
    76    14    13    1
    77    73    72    2
    78    74    75    1
    79    75    76    1
    80    91    96   am
    81   171   168    1
    82   170   169    2
    83   169   168    1
    84    13    10    1
    85    31    29   ar
    86    31    30   ar
    87    76    77    1
    88    43    42    1
    89   168   167    1
    90    83    82    1
    91    83    84    2
    92    29    27   ar
    93    81    82    1
    94    96    97    1
    95    82    85    1
    96   131   130    1
    97    30    28   ar
    98    10     9    1
    99    10    11    1
   100    79    78    1
   101    40    42   ar
   102    40    38   ar
   103    97    98    1
   104    61    60    1
   105    42    41   ar
   106    88    86   ar
   107    27    26   ar
   108    77    78    2
   109   167   165   am
   110    99    98    2
   111    28    26   ar
   112    78    80    1
   113    85    86    1
   114   132   130    1
   115   130   129    1
   116    98   100   am
   117    11    21   am
   118    11    12    2
   119    86    87   ar
   120    38    37   ar
   121    26    25    1
   122   139   137    1
   123    41    39   ar
   124    21    22    1
   125   137   138    1
   126   137   134    1
   127   129   126    1
   128   166   165    2
   129   165   164    1
   130   152   153    1
   131   152   149    1
   132    60    59    1
   133    59    58    1
   134   136   135    2
   135   155   154    2
   136   100   101    1
   137   153   154    1
   138    37    39   ar
   139    37    36    1
   140    22    25    1
   141    22    23    1
   142   154   156   am
   143   135   134    1
   144   135   140   am
   145   128   127    2
   146   134   133    1
   147    58    55    1
   148   126   127    1
   149   126   125    1
   150    57    56    2
   151   148   149    1
   152   148   142   am
   153   164   163    1
   154    55    56    1
   155    55    54    1
   156   101   104    1
   157   101   102    1
   158   149   150    1
   159   141   140    1
   160   141   142    1
   161   141   144    1
   162   147   145   ar
   163   146   145   ar
   164   142   143    2
   165    56    62   am
   166    36    33    1
   167   145   144    1
   168    23    24    2
   169   104   105    1
   170   125   119   am
   171   102   106   am
   172   102   103    2
   173   106   107    1
   174   150   157   am
   175   150   151    2
   176    32    33    1
   177   157   158    1
   178   123   121    1
   179    33    34    1
   180   162   161    1
   181    62    63    1
   182   107   108    1
   183   119   120    2
   184   119   118    1
   185   161   158    1
   186    53    51   ar
   187    53    52   ar
   188    63    64    1
   189    63    66    1
   190   158   159    1
   191    51    49   ar
   192   122   121    1
   193   122   124    1
   194    64    65    2
   195   121   118    1
   196    34    35    2
   197   118   117    1
   198    52    50   ar
   199    44    45    1
   200    45    46    1
   201    45    48    1
   202   108   110   am
   203   108   109    2
   204    69    67    1
   205    49    50   ar
   206    49    48    1
   207    47    46    2
   208    67    66    1
   209    67    68    1
   210   110   111    1
   211   159   160    2
   212   115   114    1
   213   111   112    1
   214   111   114    1
   215   112   113    2
   216   114   116    1
