@<TRIPOS>MOLECULE
tmp/1f3rB00.pdb
 219 220 0 0 0
SMALL
GASTEIGER

@<TRIPOS>ATOM
      1  N          0.1010   -8.0160  -19.3440 N.3    47  TRP47      -0.1241
      2  CA         0.6780   -7.3460  -18.1420 C.3    47  TRP47       0.1605
      3  C          0.4360   -8.2120  -16.8560 C.2    47  TRP47       0.2264
      4  O         -0.7110   -8.4740  -16.4850 O.2    47  TRP47      -0.2867
      5  CB         0.0490   -5.9310  -18.0460 C.3    47  TRP47       0.0550
      6  CG         0.6310   -5.0100  -16.9600 C.ar   47  TRP47       0.0003
      7  CD1        1.6760   -4.0760  -17.1340 C.ar   47  TRP47       0.0946
      8  CD2        0.1920   -4.8320  -15.6570 C.ar   47  TRP47       0.0152
      9  NE1        1.8750   -3.2890  -15.9830 N.ar   47  TRP47      -0.2442
     10  CE2        0.9410   -3.7740  -15.0830 C.ar   47  TRP47       0.0810
     11  CE3       -0.8380   -5.4680  -14.9120 C.ar   47  TRP47       0.0012
     12  CZ2        0.6440   -3.3230  -13.7780 C.ar   47  TRP47       0.0191
     13  CZ3       -1.0960   -5.0170  -13.6170 C.ar   47  TRP47       0.0001
     14  CH2       -0.3720   -3.9570  -13.0600 C.ar   47  TRP47       0.0015
     15  N          2.8830   -4.6050  -11.2360 N.3    50  ARG50      -0.1197
     16  CA         3.8970   -3.5450  -10.9290 C.3    50  ARG50       0.1779
     17  C          4.0530   -3.3270   -9.3890 C.2    50  ARG50       0.2305
     18  O          3.0980   -2.9260   -8.7160 O.2    50  ARG50      -0.2863
     19  CB         3.5200   -2.2360  -11.6880 C.2    50  ARG50      -0.0007
     20  CG         4.5390   -1.0670  -11.5640 C.2    50  ARG50       0.0176
     21  CD         4.2840    0.1260  -12.5060 C.3    50  ARG50       0.2464
     22  NE         3.2020    1.0290  -12.0100 N.pl3  50  ARG50      -0.0815
     23  CZ         2.7450    2.1000  -12.6540 C.cat  50  ARG50       0.5349
     24  NH1        3.1260    2.4400  -13.8470 N.pl3  50  ARG50       0.1354
     25  NH2        1.8700    2.8480  -12.0740 N.pl3  50  ARG50       0.1354
     26  N          5.1740   -0.5780   -7.0170 N.3    52  TRP52      -0.1241
     27  CA         5.2830    0.8920   -7.2380 C.3    52  TRP52       0.1605
     28  C          6.3320    1.6350   -6.3210 C.2    52  TRP52       0.2264
     29  O          7.1320    1.0100   -5.6180 O.2    52  TRP52      -0.2867
     30  CB         3.8120    1.4150   -7.2380 C.3    52  TRP52       0.0550
     31  CG         3.5850    2.7710   -7.9300 C.ar   52  TRP52       0.0003
     32  CD1        4.0640    3.1490   -9.2070 C.ar   52  TRP52       0.0946
     33  CD2        2.9230    3.8850   -7.4450 C.ar   52  TRP52       0.0152
     34  NE1        3.7100    4.4690   -9.5340 N.ar   52  TRP52      -0.2442
     35  CE2        3.0140    4.9080   -8.4230 C.ar   52  TRP52       0.0810
     36  CE3        2.2750    4.1330   -6.2060 C.ar   52  TRP52       0.0012
     37  CZ2        2.4800    6.1880   -8.1620 C.ar   52  TRP52       0.0191
     38  CZ3        1.7320    5.3990   -5.9830 C.ar   52  TRP52       0.0001
     39  CH2        1.8330    6.4120   -6.9460 C.ar   52  TRP52       0.0015
     40  N          3.9330   -0.9830   -3.1650 N.3    56  TYR56      -0.1227
     41  CA         2.6000   -1.6110   -3.3940 C.3    56  TYR56       0.1736
     42  C          2.6750   -2.5460   -4.6410 C.2    56  TYR56       0.2596
     43  O          2.8760   -2.0700   -5.7640 O.2    56  TYR56      -0.2718
     44  CB         1.5130   -0.5020   -3.5390 C.3    56  TYR56       0.0548
     45  CG         0.0600   -1.0250   -3.5590 C.ar   56  TYR56      -0.0200
     46  CD1       -0.4480   -1.6490   -4.7050 C.ar   56  TYR56      -0.0009
     47  CD2       -0.7540   -0.9130   -2.4270 C.ar   56  TYR56      -0.0009
     48  CE1       -1.7320   -2.1830   -4.7070 C.ar   56  TYR56       0.0417
     49  CE2       -2.0530   -1.4230   -2.4410 C.ar   56  TYR56       0.0417
     50  CZ        -2.5390   -2.0570   -3.5830 C.ar   56  TYR56       0.1957
     51  OH        -3.8080   -2.5730   -3.5970 O.3    56  TYR56      -0.2866
     52  N          2.4340   -3.8500   -4.4510 N.am   57  THR57      -0.1939
     53  CA         2.3770   -4.8490   -5.5590 C.3    57  THR57       0.2028
     54  C          0.9520   -4.9120   -6.2160 C.2    57  THR57       0.2642
     55  O          0.0570   -5.6120   -5.7290 O.2    57  THR57      -0.2714
     56  CB         2.8410   -6.2510   -5.0470 C.3    57  THR57       0.1808
     57  OG1        1.9330   -6.7670   -4.0770 O.3    57  THR57      -0.2208
     58  CG2        4.2470   -6.3290   -4.4330 C.3    57  THR57       0.0379
     59  N          0.7440   -4.1710   -7.3150 N.am   58  ALA58      -0.1963
     60  CA        -0.5200   -4.2160   -8.1000 C.3    58  ALA58       0.1728
     61  C         -0.5070   -5.3100   -9.2170 C.2    58  ALA58       0.2616
     62  O          0.5090   -5.4910   -9.8920 O.2    58  ALA58      -0.2715
     63  CB        -0.6720   -2.8040   -8.6860 C.3    58  ALA58       0.0334
     64  N         -1.6110   -6.0490   -9.4080 N.am   59  TYR59      -0.1960
     65  CA        -1.5960   -7.3280  -10.1860 C.3    59  TYR59       0.1771
     66  C         -2.7800   -7.5030  -11.1920 C.2    59  TYR59       0.2620
     67  O         -3.8430   -6.8810  -11.0950 O.2    59  TYR59      -0.2715
     68  CB        -1.5520   -8.5210   -9.1800 C.3    59  TYR59       0.0574
     69  CG        -0.2470   -8.7410   -8.4010 C.ar   59  TYR59      -0.0198
     70  CD1        0.9710   -8.9190   -9.0690 C.ar   59  TYR59      -0.0009
     71  CD2       -0.2900   -8.8650   -7.0090 C.ar   59  TYR59      -0.0009
     72  CE1        2.1290   -9.2080   -8.3530 C.ar   59  TYR59       0.0417
     73  CE2        0.8630   -9.1840   -6.3000 C.ar   59  TYR59       0.0417
     74  CZ         2.0670   -9.3560   -6.9730 C.ar   59  TYR59       0.1957
     75  OH         3.1330   -9.8540   -6.2900 O.3    59  TYR59      -0.2866
     76  N         -2.5780   -8.4260  -12.1450 N.am   60  ASN60      -0.1958
     77  CA        -3.6350   -8.9250  -13.0610 C.3    60  ASN60       0.1819
     78  C         -4.7690   -9.7440  -12.3490 C.2    60  ASN60       0.2622
     79  O         -4.4860  -10.6140  -11.5250 O.2    60  ASN60      -0.2715
     80  CB        -2.8560   -9.7550  -14.1210 C.3    60  ASN60       0.1195
     81  CG        -3.6660  -10.1910  -15.3410 C.2    60  ASN60       0.2630
     82  OD1       -4.4710  -11.1100  -15.2840 O.2    60  ASN60      -0.2716
     83  ND2       -3.4850   -9.5730  -16.4780 N.am   60  ASN60      -0.0877
     84  N         -6.0450   -9.5150  -12.7070 N.am   61  SER61      -0.1950
     85  CA        -7.1900  -10.3280  -12.1820 C.3    61  SER61       0.1924
     86  C         -7.1660  -11.8800  -12.4400 C.2    61  SER61       0.2314
     87  O         -7.5630  -12.6410  -11.5530 O.2    61  SER61      -0.2863
     88  CB        -8.5130   -9.6740  -12.6460 C.3    61  SER61       0.2116
     89  OG        -8.7570   -8.4540  -11.9380 O.3    61  SER61      -0.2180
     90  N         -3.3310  -13.4380  -10.1280 N.3    64  LYS64      -0.1245
     91  CA        -3.4260  -12.6350   -8.8710 C.3    64  LYS64       0.1561
     92  C         -2.6570  -13.3250   -7.6880 C.2    64  LYS64       0.2260
     93  O         -1.5170  -12.9530   -7.4000 O.2    64  LYS64      -0.2867
     94  CB        -4.9320  -12.3020   -8.6240 C.3    64  LYS64       0.0271
     95  CG        -5.1910  -11.0860   -7.6970 C.3    64  LYS64       0.0035
     96  CD        -5.2020   -9.7530   -8.4730 C.3    64  LYS64       0.0206
     97  CE        -5.3680   -8.5190   -7.5750 C.3    64  LYS64       0.1093
     98  NZ        -5.5370   -7.3260   -8.4280 N.3    64  LYS64      -0.1314
     99  N          4.1910   11.2250   -9.2240 N.3   104  PRO104     -0.2102
    100  CA         3.0920   10.6770  -10.0880 C.3   104  PRO104      0.1504
    101  C          2.3670   11.5760  -11.1540 C.2   104  PRO104      0.2576
    102  O          1.7570   11.0320  -12.0770 O.2   104  PRO104     -0.2718
    103  CB         2.0850   10.1470   -9.0420 C.3   104  PRO104      0.0282
    104  CG         2.8610   10.0140   -7.7350 C.3   104  PRO104      0.0208
    105  CD         3.8540   11.1690   -7.7850 C.3   104  PRO104      0.0893
    106  N          2.3310   12.9090  -10.9970 N.am  105  LEU105     -0.1966
    107  CA         1.3060   13.7980  -11.6290 C.3   105  LEU105      0.1728
    108  C          1.2550   13.8760  -13.2030 C.2   105  LEU105      0.2617
    109  O          2.1680   14.3890  -13.8580 O.2   105  LEU105     -0.2715
    110  CB         1.3540   15.1880  -10.9200 C.3   105  LEU105      0.0311
    111  CG         2.4820   16.2100  -11.2480 C.3   105  LEU105      0.0022
    112  CD1        2.1980   17.5470  -10.5430 C.3   105  LEU105      0.0001
    113  CD2        3.8900   15.7380  -10.8520 C.3   105  LEU105      0.0001
    114  N          0.1770   13.3460  -13.8140 N.am  106  GLY106     -0.1940
    115  CA         0.0630   13.2220  -15.3000 C.3   106  GLY106      0.2014
    116  C          0.9080   12.0930  -15.9310 C.2   106  GLY106      0.2638
    117  O          1.8580   12.3740  -16.6590 O.2   106  GLY106     -0.2714
    118  N          0.5960   10.8270  -15.6210 N.am  107  PHE107     -0.1973
    119  CA         1.6090    9.7320  -15.6690 C.3   107  PHE107      0.1639
    120  C          2.1390    9.3520  -17.1030 C.2   107  PHE107      0.2290
    121  O          1.4170    8.7750  -17.9190 O.2   107  PHE107     -0.2864
    122  CB         1.0200    8.5230  -14.8780 C.3   107  PHE107      0.0560
    123  CG         2.0570    7.6150  -14.1910 C.ar  107  PHE107     -0.0200
    124  CD1        2.7040    6.6070  -14.9080 C.ar  107  PHE107     -0.0042
    125  CD2        2.3590    7.7890  -12.8360 C.ar  107  PHE107     -0.0042
    126  CE1        3.6430    5.7890  -14.2860 C.ar  107  PHE107     -0.0003
    127  CE2        3.2940    6.9690  -12.2110 C.ar  107  PHE107     -0.0003
    128  CZ         3.9310    5.9660  -12.9360 C.ar  107  PHE107     -0.0000
    129  N          4.3980    6.9150  -18.0360 N.3   109  TYR109     -0.1241
    130  CA         4.4620    5.4330  -18.1920 C.3   109  TYR109      0.1605
    131  C          5.8960    4.8530  -18.3470 C.2   109  TYR109      0.2264
    132  O          6.5890    4.7970  -17.3290 O.2   109  TYR109     -0.2867
    133  CB         3.2910    4.7600  -18.9920 C.3   109  TYR109      0.0534
    134  CG         2.0310    4.5370  -18.1420 C.ar  109  TYR109     -0.0201
    135  CD1        1.9450    3.4230  -17.3000 C.ar  109  TYR109     -0.0009
    136  CD2        1.0340    5.5120  -18.0920 C.ar  109  TYR109     -0.0009
    137  CE1        0.8820    3.2960  -16.4080 C.ar  109  TYR109      0.0417
    138  CE2       -0.0120    5.3960  -17.1810 C.ar  109  TYR109      0.0417
    139  CZ        -0.0900    4.2900  -16.3430 C.ar  109  TYR109      0.1957
    140  OH        -1.1330    4.1760  -15.4660 O.3   109  TYR109     -0.2866
    141  N        -12.1750    5.8020  -21.6030 N.3   168  ASN168     -0.1240
    142  CA       -12.2100    7.2860  -21.3700 C.3   168  ASN168      0.1653
    143  C        -11.2260    8.1010  -22.2830 C.2   168  ASN168      0.2266
    144  O        -11.6360    8.6490  -23.3090 O.2   168  ASN168     -0.2867
    145  CB       -12.2160    7.6980  -19.8630 C.3   168  ASN168      0.1155
    146  CG       -13.4320    7.2490  -19.0490 C.2   168  ASN168      0.2627
    147  OD1      -14.5670    7.2320  -19.5100 O.2   168  ASN168     -0.2716
    148  ND2      -13.2530    6.9090  -17.8000 N.am  168  ASN168     -0.0877
    149  N         -7.3570    6.8500  -21.9500 N.3   170  TYR170     -0.1241
    150  CA        -6.1270    6.4190  -21.2330 C.3   170  TYR170      0.1605
    151  C         -5.4440    5.2070  -21.9390 C.2   170  TYR170      0.2264
    152  O         -5.6090    4.0490  -21.5430 O.2   170  TYR170     -0.2867
    153  CB        -6.5650    6.1430  -19.7650 C.3   170  TYR170      0.0534
    154  CG        -6.9180    7.3740  -18.9080 C.ar  170  TYR170     -0.0201
    155  CD1       -5.9360    8.3100  -18.5660 C.ar  170  TYR170     -0.0009
    156  CD2       -8.2330    7.5730  -18.4760 C.ar  170  TYR170     -0.0009
    157  CE1       -6.2670    9.4320  -17.8100 C.ar  170  TYR170      0.0417
    158  CE2       -8.5620    8.6990  -17.7230 C.ar  170  TYR170      0.0417
    159  CZ        -7.5780    9.6240  -17.3890 C.ar  170  TYR170      0.1957
    160  OH        -7.8970   10.7090  -16.6180 O.3   170  TYR170     -0.2866
    161  N         -1.2750    8.6540  -23.3370 N.3   188  ASN188     -0.1240
    162  CA        -2.6030    9.3070  -23.0770 C.3   188  ASN188      0.1653
    163  C         -3.5400    9.5480  -24.3200 C.2   188  ASN188      0.2266
    164  O         -4.1500   10.6110  -24.4700 O.2   188  ASN188     -0.2867
    165  CB        -2.3990   10.5610  -22.1710 C.3   188  ASN188      0.1155
    166  CG        -1.8800   10.3110  -20.7500 C.2   188  ASN188      0.2627
    167  OD1       -2.0140    9.2410  -20.1660 O.2   188  ASN188     -0.2716
    168  ND2       -1.2750   11.2910  -20.1350 N.am  188  ASN188     -0.0877
    169  N         -5.2860    1.8170  -19.6610 N.3   229  TYR229     -0.1227
    170  CA        -5.0740    2.0490  -18.2030 C.3   229  TYR229      0.1736
    171  C         -6.2650    2.8350  -17.5610 C.2   229  TYR229      0.2595
    172  O         -6.1660    4.0180  -17.2340 O.2   229  TYR229     -0.2718
    173  CB        -3.6480    2.6300  -17.9480 C.3   229  TYR229      0.0548
    174  CG        -3.0780    3.7770  -18.8040 C.ar  229  TYR229     -0.0200
    175  CD1       -3.3100    5.1140  -18.4750 C.ar  229  TYR229     -0.0009
    176  CD2       -2.2390    3.4750  -19.8800 C.ar  229  TYR229     -0.0009
    177  CE1       -2.7190    6.1360  -19.2150 C.ar  229  TYR229      0.0417
    178  CE2       -1.6380    4.4970  -20.6070 C.ar  229  TYR229      0.0417
    179  CZ        -1.8750    5.8260  -20.2750 C.ar  229  TYR229      0.1957
    180  OH        -1.2380    6.8270  -20.9560 O.3   229  TYR229     -0.2866
    181  N         -7.4060    2.1520  -17.3690 N.am  230  ASN230     -0.1960
    182  CA        -8.6520    2.7600  -16.8060 C.3   230  ASN230      0.1819
    183  C         -9.4760    1.7060  -15.9870 C.2   230  ASN230      0.2621
    184  O         -9.6640    1.8620  -14.7780 O.2   230  ASN230     -0.2715
    185  CB        -9.4340    3.4440  -17.9650 C.3   230  ASN230      0.1195
    186  CG       -10.6520    4.2670  -17.5480 C.2   230  ASN230      0.2630
    187  OD1      -10.5530    5.3920  -17.0750 O.2   230  ASN230     -0.2716
    188  ND2      -11.8470    3.7660  -17.7210 N.am  230  ASN230     -0.0877
    189  N         -9.9680    0.6370  -16.6340 N.am  231  ASN231     -0.1958
    190  CA       -10.6640   -0.4940  -15.9560 C.3   231  ASN231      0.1819
    191  C         -9.6230   -1.5640  -15.4570 C.2   231  ASN231      0.2622
    192  O         -9.0510   -1.4230  -14.3670 O.2   231  ASN231     -0.2715
    193  CB       -11.8530   -0.9380  -16.8720 C.3   231  ASN231      0.1195
    194  CG       -11.5330   -1.4130  -18.3010 C.2   231  ASN231      0.2630
    195  OD1      -11.1190   -2.5430  -18.5220 O.2   231  ASN231     -0.2716
    196  ND2      -11.6840   -0.5910  -19.3040 N.am  231  ASN231     -0.0877
    197  N         -9.2990   -2.5740  -16.2750 N.am  232  GLY232     -0.1940
    198  CA        -8.0290   -3.3290  -16.1460 C.3   232  GLY232      0.2014
    199  C         -6.7700   -2.6110  -16.6940 C.2   232  GLY232      0.2639
    200  O         -6.7860   -1.4380  -17.0750 O.2   232  GLY232     -0.2714
    201  N         -5.6560   -3.3400  -16.6700 N.am  233  TYR233     -0.1959
    202  CA        -4.3690   -2.9020  -17.2870 C.3   233  TYR233      0.1771
    203  C         -3.9310   -4.0020  -18.3020 C.2   233  TYR233      0.2620
    204  O         -3.1980   -4.9290  -17.9490 O.2   233  TYR233     -0.2715
    205  CB        -3.3120   -2.6130  -16.1740 C.3   233  TYR233      0.0574
    206  CG        -3.3150   -1.1830  -15.6060 C.ar  233  TYR233     -0.0198
    207  CD1       -4.4370   -0.6640  -14.9530 C.ar  233  TYR233     -0.0009
    208  CD2       -2.1850   -0.3750  -15.7600 C.ar  233  TYR233     -0.0009
    209  CE1       -4.4480    0.6530  -14.5120 C.ar  233  TYR233      0.0417
    210  CE2       -2.1830    0.9320  -15.2790 C.ar  233  TYR233      0.0417
    211  CZ        -3.3200    1.4460  -14.6640 C.ar  233  TYR233      0.1957
    212  OH        -3.3250    2.7360  -14.2150 O.3   233  TYR233     -0.2866
    213  N         -4.4170   -3.9180  -19.5500 N.am  234  THR234     -0.1951
    214  CA        -4.1660   -4.9560  -20.5970 C.3   234  THR234      0.1897
    215  C         -3.4870   -4.3280  -21.8550 C.2   234  THR234      0.2313
    216  O         -3.8950   -3.2730  -22.3520 O.2   234  THR234     -0.2863
    217  CB        -5.4470   -5.7640  -20.9950 C.3   234  THR234      0.1794
    218  OG1       -6.4720   -4.9460  -21.5530 O.3   234  THR234     -0.2208
    219  CG2       -6.0920   -6.5770  -19.8650 C.3   234  THR234      0.0378
@<TRIPOS>BOND
     1   164   163    2
     2   163   162    1
     3   161   162    1
     4   144   143    2
     5   162   165    1
     6   216   215    2
     7   143   142    1
     8   165   166    1
     9   149   150    1
    10   151   152    2
    11   151   150    1
    12   215   214    1
    13   141   142    1
    14   218   217    1
    15   142   145    1
    16   150   153    1
    17   217   214    1
    18   217   219    1
    19   180   179    1
    20   166   167    2
    21   166   168   am
    22   178   179   ar
    23   178   176   ar
    24   214   213    1
    25   179   177   ar
    26   176   174   ar
    27   145   146    1
    28   153   154    1
    29   169   170    1
    30   213   203   am
    31   147   146    2
    32     1     2    1
    33   196   194   am
    34   177   175   ar
    35   146   148   am
    36   133   130    1
    37   133   134    1
    38   154   155   ar
    39   154   156   ar
    40   174   175   ar
    41   174   173    1
    42   155   157   ar
    43   195   194    2
    44   156   158   ar
    45   131   130    1
    46   131   132    2
    47   203   204    2
    48   203   202    1
    49   194   193    1
    50   170   173    1
    51   170   171    1
    52   130   129    1
    53   134   136   ar
    54   134   135   ar
    55     2     5    1
    56     2     3    1
    57   136   138   ar
    58     5     6    1
    59   185   186    1
    60   185   182    1
    61   121   120    2
    62   157   159   ar
    63   158   159   ar
    64   188   186   am
    65   171   181   am
    66   171   172    2
    67   186   187    2
    68   159   160    1
    69   181   182    1
    70   135   137   ar
    71   202   201    1
    72   202   205    1
    73   138   139   ar
    74     7     6   ar
    75     7     9   ar
    76   120   119    1
    77   200   199    2
    78     6     8   ar
    79   193   190    1
    80     3     4    2
    81   182   183    1
    82   199   201   am
    83   199   198    1
    84   117   116    2
    85   189   183   am
    86   189   190    1
    87    83    81   am
    88   137   139   ar
    89   139   140    1
    90   197   198    1
    91   197   191   am
    92   205   206    1
    93   183   184    2
    94     9    10   ar
    95   190   191    1
    96   116   118   am
    97   116   115    1
    98   208   206   ar
    99   208   210   ar
   100   119   118    1
   101   119   122    1
   102     8    10   ar
   103     8    11   ar
   104   206   207   ar
   105   191   192    2
   106    81    82    2
   107    81    80    1
   108   115   114    1
   109   210   211   ar
   110    10    12   ar
   111   207   209   ar
   112    11    13   ar
   113   124   126   ar
   114   124   123   ar
   115   122   123    1
   116   211   209   ar
   117   211   212    1
   118   126   128   ar
   119   123   125   ar
   120    80    77    1
   121   109   108    2
   122    24    23    1
   123   114   108   am
   124    12    14   ar
   125    13    14   ar
   126   108   107    1
   127    77    78    1
   128    77    76    1
   129   128   127   ar
   130   125   127   ar
   131    84    78   am
   132    84    85    1
   133    23    25    1
   134    23    22    2
   135    88    85    1
   136    88    89    1
   137    21    22    1
   138    21    20    1
   139    86    85    1
   140    86    87    2
   141    78    79    2
   142    76    66   am
   143   102   101    2
   144    19    20    2
   145    19    16    1
   146   107   106    1
   147   107   110    1
   148   111   110    1
   149   111   113    1
   150   111   112    1
   151    15    16    1
   152    66    67    2
   153    66    65    1
   154   101   106   am
   155   101   100    1
   156    16    17    1
   157    65    64    1
   158    65    68    1
   159    90    91    1
   160   100    99    1
   161   100   103    1
   162    62    61    2
   163    34    32   ar
   164    34    35   ar
   165    64    61   am
   166    17    18    2
   167    99   105    1
   168    61    60    1
   169    32    31   ar
   170    68    69    1
   171    70    69   ar
   172    70    72   ar
   173   103   104    1
   174    91    94    1
   175    91    92    1
   176    63    60    1
   177    94    95    1
   178    96    95    1
   179    96    97    1
   180    98    97    1
   181    35    37   ar
   182    35    33   ar
   183    69    71   ar
   184    72    74   ar
   185    37    39   ar
   186    60    59    1
   187    31    33   ar
   188    31    30    1
   189   105   104    1
   190    92    93    2
   191    33    36   ar
   192    59    54   am
   193    30    27    1
   194    27    26    1
   195    27    28    1
   196    71    73   ar
   197    74    73   ar
   198    74    75    1
   199    39    38   ar
   200    28    29    2
   201    54    55    2
   202    54    53    1
   203    36    38   ar
   204    43    42    2
   205    53    56    1
   206    53    52    1
   207    56    58    1
   208    56    57    1
   209    48    46   ar
   210    48    50   ar
   211    46    45   ar
   212    42    52   am
   213    42    41    1
   214    51    50    1
   215    50    49   ar
   216    45    44    1
   217    45    47   ar
   218    44    41    1
   219    41    40    1
   220    49    47   ar
