@<TRIPOS>MOLECULE
tmp/1f3tB00.pdb
 147 141 0 0 0
SMALL
GASTEIGER

@<TRIPOS>ATOM
      1  N         26.0270  -17.5280   -3.4060 N.3    48  ALA48      -0.1245
      2  CA        24.7160  -16.9070   -3.2040 C.3    48  ALA48       0.1562
      3  C         24.6890  -15.5490   -3.9110 C.2    48  ALA48       0.2260
      4  O         25.1830  -14.5430   -3.3860 O.2    48  ALA48      -0.2867
      5  CB        24.4360  -16.7450   -1.7490 C.3    48  ALA48       0.0290
      6  N         22.4870  -13.3720   -4.3720 N.3    50  LYS50      -0.1245
      7  CA        21.8340  -12.2690   -3.6590 C.3    50  LYS50       0.1561
      8  C         22.8130  -11.3630   -2.8890 C.2    50  LYS50       0.2260
      9  O         22.5460  -10.1700   -2.6710 O.2    50  LYS50      -0.2867
     10  CB        20.8380  -12.8280   -2.6630 C.3    50  LYS50       0.0271
     11  CG        21.4470  -13.8560   -1.7210 C.3    50  LYS50       0.0035
     12  CD        20.4500  -14.2080   -0.6240 C.3    50  LYS50       0.0206
     13  CE        20.5850  -15.6440   -0.1640 C.3    50  LYS50       0.1093
     14  NZ        20.2620  -16.6230   -1.2500 N.3    50  LYS50      -0.1314
     15  N         23.7380  -20.1560   -6.3410 N.3    69  ASP69      -0.1239
     16  CA        22.5020  -20.3370   -5.5950 C.3    69  ASP69       0.1674
     17  C         21.6520  -19.0950   -5.9020 C.2    69  ASP69       0.2266
     18  O         22.0080  -17.9760   -5.5120 O.2    69  ASP69      -0.2867
     19  CB        22.7950  -20.4330   -4.0940 C.3    69  ASP69       0.1410
     20  CG        21.5910  -20.0870   -3.2400 C.2    69  ASP69       0.3668
     21  OD1       20.4470  -20.2150   -3.7220 O.co2  69  ASP69      -0.2456
     22  OD2       21.7880  -19.6990   -2.0700 O.co2  69  ASP69      -0.2456
     23  N         17.6190  -21.9810   -4.2790 N.3    92  ALA92      -0.1245
     24  CA        17.5210  -22.1830   -2.8460 C.3    92  ALA92       0.1562
     25  C         16.6430  -21.2570   -2.0420 C.2    92  ALA92       0.2260
     26  O         17.0180  -20.8020   -0.9590 O.2    92  ALA92      -0.2867
     27  CB        18.9310  -22.2420   -2.2340 C.3    92  ALA92       0.0290
     28  N         15.0220  -28.3310    3.5380 N.3   135  ARG135     -0.1245
     29  CA        15.7730  -27.4460    4.4170 C.3   135  ARG135      0.1563
     30  C         15.2780  -27.5690    5.8430 C.2   135  ARG135      0.2260
     31  O         14.1000  -27.3450    6.1260 O.2   135  ARG135     -0.2867
     32  CB        15.6430  -25.9870    3.9270 C.3   135  ARG135      0.0307
     33  CG        16.1730  -24.9520    4.9220 C.3   135  ARG135      0.0489
     34  CD        16.3440  -23.5810    4.2580 C.3   135  ARG135      0.2205
     35  NE        16.7950  -22.5600    5.2040 N.pl3 135  ARG135     -0.0865
     36  CZ        16.9420  -21.2810    4.8800 C.cat 135  ARG135      0.5346
     37  NH1       16.6720  -20.8950    3.6440 N.pl3 135  ARG135      0.1354
     38  NH2       17.3740  -20.4010    5.7750 N.pl3 135  ARG135      0.1354
     39  N         15.7520  -16.0840   11.7960 N.3   140  LEU140     -0.1245
     40  CA        15.8500  -16.8000   10.5270 C.3   140  LEU140      0.1561
     41  C         15.2550  -18.1990   10.6660 C.2   140  LEU140      0.2260
     42  O         14.7990  -18.7850    9.6870 O.2   140  LEU140     -0.2867
     43  CB        17.3110  -16.9160   10.0640 C.3   140  LEU140      0.0270
     44  CG        17.4550  -17.3330    8.5900 C.3   140  LEU140      0.0019
     45  CD1       16.9430  -16.2050    7.6970 C.3   140  LEU140      0.0001
     46  CD2       18.8940  -17.6170    8.2500 C.3   140  LEU140      0.0001
     47  N         12.3570  -19.7520    8.1290 N.3   144  PHE144     -0.1241
     48  CA        12.5980  -20.9420    7.2880 C.3   144  PHE144      0.1605
     49  C         13.1750  -22.1670    8.0240 C.2   144  PHE144      0.2264
     50  O         13.7860  -22.0430    9.0770 O.2   144  PHE144     -0.2867
     51  CB        13.5870  -20.6270    6.1610 C.3   144  PHE144      0.0534
     52  CG        13.1980  -19.4710    5.2780 C.ar  144  PHE144     -0.0203
     53  CD1       13.9980  -18.3300    5.2260 C.ar  144  PHE144     -0.0042
     54  CD2       12.0940  -19.5510    4.4380 C.ar  144  PHE144     -0.0042
     55  CE1       13.7080  -17.2840    4.3340 C.ar  144  PHE144     -0.0003
     56  CE2       11.7970  -18.5120    3.5490 C.ar  144  PHE144     -0.0003
     57  CZ        12.6150  -17.3770    3.5000 C.ar  144  PHE144     -0.0000
     58  N         20.9260  -23.6830    7.0470 N.3   171  HIS171     -0.1241
     59  CA        21.7100  -22.4500    6.9900 C.3   171  HIS171      0.1621
     60  C         21.8470  -21.9760    8.4240 C.2   171  HIS171      0.2264
     61  O         20.8450  -21.6970    9.0720 O.2   171  HIS171     -0.2867
     62  CB        20.9950  -21.3790    6.1460 C.3   171  HIS171      0.0745
     63  CG        21.7830  -20.1120    5.9900 C.ar  171  HIS171      0.0817
     64  ND1       21.3230  -18.8870    6.4220 N.ar  171  HIS171     -0.2268
     65  CD2       23.0100  -19.8900    5.4630 C.ar  171  HIS171      0.1154
     66  CE1       22.2340  -17.9600    6.1620 C.ar  171  HIS171      0.1986
     67  NE2       23.2640  -18.5430    5.5810 N.ar  171  HIS171     -0.2212
     68  N         25.1770  -15.9850    9.7410 N.3   174  SER174     -0.1217
     69  CA        26.5140  -15.4490   10.0100 C.3   174  SER174      0.1889
     70  C         26.7010  -15.0020   11.4500 C.2   174  SER174      0.2288
     71  O         27.7860  -14.5630   11.8320 O.2   174  SER174     -0.2866
     72  CB        26.8100  -14.2660    9.0880 C.3   174  SER174      0.2089
     73  OG        26.9630  -14.6990    7.7480 O.3   174  SER174     -0.2183
     74  N         25.2680  -21.0910    4.0690 N.3   210  GLY210     -0.1210
     75  CA        26.2750  -20.0380    4.1160 C.3   210  GLY210      0.1956
     76  C         26.5970  -19.5790    5.5250 C.2   210  GLY210      0.2612
     77  O         26.3730  -20.3060    6.4800 O.2   210  GLY210     -0.2717
     78  N         27.1240  -18.3690    5.6650 N.am  211  GLY211     -0.1942
     79  CA        27.4350  -17.8930    6.9960 C.3   211  GLY211      0.2014
     80  C         28.9170  -17.8650    7.3310 C.2   211  GLY211      0.2638
     81  O         29.2800  -17.5030    8.4500 O.2   211  GLY211     -0.2714
     82  N         29.7600  -18.2570    6.3820 N.am  212  PHE212     -0.1973
     83  CA        31.2080  -18.2590    6.5660 C.3   212  PHE212      0.1639
     84  C         31.7340  -16.8180    6.4890 C.2   212  PHE212      0.2290
     85  O         31.3080  -16.0550    5.6330 O.2   212  PHE212     -0.2864
     86  CB        31.8720  -19.0560    5.4530 C.3   212  PHE212      0.0560
     87  CG        31.2430  -20.4020    5.2240 C.ar  212  PHE212     -0.0200
     88  CD1       30.1820  -20.5380    4.3460 C.ar  212  PHE212     -0.0042
     89  CD2       31.6660  -21.5140    5.9530 C.ar  212  PHE212     -0.0042
     90  CE1       29.5330  -21.7700    4.1940 C.ar  212  PHE212     -0.0003
     91  CE2       31.0250  -22.7470    5.8100 C.ar  212  PHE212     -0.0003
     92  CZ        29.9590  -22.8700    4.9320 C.ar  212  PHE212     -0.0000
     93  N         26.3730  -22.7910    0.1250 N.3   248  GLU248     -0.1231
     94  CA        25.8600  -21.5790   -0.5100 C.3   248  GLU248      0.1684
     95  C         26.5420  -20.3360    0.0900 C.2   248  GLU248      0.2434
     96  O         25.8750  -19.4460    0.5950 O.2   248  GLU248     -0.2733
     97  CB        24.3510  -21.4800   -0.2640 C.3   248  GLU248      0.0402
     98  CG        23.5100  -22.7050   -0.7180 C.3   248  GLU248      0.1161
     99  CD        22.1460  -22.7660   -0.0240 C.2   248  GLU248      0.3649
    100  OE1       21.2760  -23.5560   -0.4610 O.co2 248  GLU248     -0.2457
    101  OE2       21.9400  -22.0260    0.9710 O.co2 248  GLU248     -0.2457
    102  N         27.8840  -20.2670    0.0520 N.am  249  PRO249     -0.2718
    103  CA        28.5570  -19.0920    0.6200 C.3   249  PRO249      0.1535
    104  C         28.2300  -17.8250   -0.1720 C.2   249  PRO249      0.2599
    105  O         28.2530  -17.8440   -1.3970 O.2   249  PRO249     -0.2715
    106  CB        30.0260  -19.4390    0.4550 C.3   249  PRO249      0.0310
    107  CG        30.0300  -20.0700   -0.8960 C.3   249  PRO249      0.0237
    108  CD        28.8250  -21.0500   -0.7690 C.3   249  PRO249      0.0939
    109  N         27.9640  -16.7320    0.5290 N.am  250  GLY250     -0.1941
    110  CA        27.7030  -15.4770   -0.1490 C.3   250  GLY250      0.2014
    111  C         28.7990  -14.4970    0.2670 C.2   250  GLY250      0.2639
    112  O         29.7150  -14.2440   -0.4900 O.2   250  GLY250     -0.2714
    113  N         28.7510  -14.0070    1.5040 N.am  251  ARG251     -0.1963
    114  CA        29.7480  -13.0170    1.9300 C.3   251  ARG251      0.1729
    115  C         31.1960  -13.5070    1.8670 C.2   251  ARG251      0.2616
    116  O         32.0980  -12.7380    1.5220 O.2   251  ARG251     -0.2715
    117  CB        29.4070  -12.4910    3.3250 C.3   251  ARG251      0.0348
    118  CG        29.5770  -13.4840    4.4290 C.3   251  ARG251      0.0492
    119  CD        29.2610  -12.8440    5.7510 C.3   251  ARG251      0.2205
    120  NE        27.8260  -12.7480    5.9940 N.pl3 251  ARG251     -0.0865
    121  CZ        27.1630  -11.5990    6.1110 C.cat 251  ARG251      0.5346
    122  NH1       27.8030  -10.4350    5.9930 N.pl3 251  ARG251      0.1354
    123  NH2       25.8670  -11.6150    6.3880 N.pl3 251  ARG251      0.1354
    124  N         31.4120  -14.7900    2.1370 N.am  252  TYR252     -0.1974
    125  CA        32.7510  -15.3890    2.1390 C.3   252  TYR252      0.1639
    126  C         33.5420  -15.0000    0.8870 C.2   252  TYR252      0.2290
    127  O         34.7410  -14.6810    0.9640 O.2   252  TYR252     -0.2864
    128  CB        32.6850  -16.9060    2.1370 C.3   252  TYR252      0.0560
    129  CG        34.0470  -17.5170    1.8710 C.ar  252  TYR252     -0.0198
    130  CD1       34.9360  -17.7410    2.9350 C.ar  252  TYR252     -0.0009
    131  CD2       34.4890  -17.8430    0.5850 C.ar  252  TYR252     -0.0009
    132  CE1       36.2130  -18.2320    2.7200 C.ar  252  TYR252      0.0417
    133  CE2       35.7930  -18.3330    0.3540 C.ar  252  TYR252      0.0417
    134  CZ        36.6630  -18.5040    1.4400 C.ar  252  TYR252      0.1957
    135  OH        37.9590  -18.9300    1.2310 O.3   252  TYR252     -0.2866
    136  N         26.2780   -7.5840    0.7630 N.3   348  TYR348     -0.1241
    137  CA        25.0140   -6.9880    1.1490 C.3   348  TYR348      0.1605
    138  C         25.1100   -5.4520    1.2100 C.2   348  TYR348      0.2264
    139  O         24.5950   -4.8340    2.1210 O.2   348  TYR348     -0.2867
    140  CB        24.5670   -7.5520    2.4880 C.3   348  TYR348      0.0534
    141  CG        24.4680   -9.0690    2.4220 C.ar  348  TYR348     -0.0201
    142  CD1       25.3780   -9.8900    3.0950 C.ar  348  TYR348     -0.0009
    143  CD2       23.5030   -9.6770    1.6240 C.ar  348  TYR348     -0.0009
    144  CE1       25.3220  -11.2990    2.9650 C.ar  348  TYR348      0.0417
    145  CE2       23.4370  -11.0660    1.4850 C.ar  348  TYR348      0.0417
    146  CZ        24.3470  -11.8690    2.1560 C.ar  348  TYR348      0.1957
    147  OH        24.2670  -13.2370    2.0070 O.3   348  TYR348     -0.2866
@<TRIPOS>BOND
     1    15    16    1
     2    17    16    1
     3    17    18    2
     4    16    19    1
     5     6     7    1
     6    23    24    1
     7    19    20    1
     8     3     4    2
     9     3     2    1
    10    21    20   ar
    11     7     8    1
    12     7    10    1
    13     1     2    1
    14    20    22   ar
    15     2     5    1
    16     8     9    2
    17    24    27    1
    18    24    25    1
    19    10    11    1
    20    25    26    2
    21    11    12    1
    22   105   104    2
    23    14    13    1
    24   107   108    1
    25   107   106    1
    26   108   102    1
    27    98    97    1
    28    98    99    1
    29    12    13    1
    30    94    97    1
    31    94    95    1
    32    94    93    1
    33   112   111    2
    34   100    99   ar
    35   104   109   am
    36   104   103    1
    37   110   111    1
    38   110   109    1
    39    99   101   ar
    40   102    95   am
    41   102   103    1
    42    95    96    2
    43   111   113   am
    44   133   131   ar
    45   133   134   ar
    46   106   103    1
    47   131   129   ar
    48   136   137    1
    49   126   127    2
    50   126   125    1
    51   137   138    1
    52   137   140    1
    53   138   139    2
    54   135   134    1
    55   134   132   ar
    56   145   143   ar
    57   145   146   ar
    58   113   114    1
    59   116   115    2
    60   143   141   ar
    61   115   114    1
    62   115   124   am
    63   129   128    1
    64   129   130   ar
    65   114   117    1
    66   147   146    1
    67   124   125    1
    68   128   125    1
    69   146   144   ar
    70   141   140    1
    71   141   142   ar
    72   132   130   ar
    73   144   142   ar
    74   117   118    1
    75    57    56   ar
    76    57    55   ar
    77    28    29    1
    78    56    54   ar
    79    37    36    1
    80    32    29    1
    81    32    33    1
    82    74    75    1
    83    75    76    1
    84    90    88   ar
    85    90    92   ar
    86    34    33    1
    87    34    35    1
    88    55    53   ar
    89    88    87   ar
    90    29    30    1
    91   118   119    1
    92    54    52   ar
    93    36    35    2
    94    36    38    1
    95    92    91   ar
    96    87    86    1
    97    87    89   ar
    98    53    52   ar
    99    52    51    1
   100    86    83    1
   101    65    67   ar
   102    65    63   ar
   103    76    78   am
   104    76    77    2
   105    67    66   ar
   106    85    84    2
   107    78    79    1
   108   119   120    1
   109    91    89   ar
   110    30    31    2
   111    63    62    1
   112    63    64   ar
   113   122   121    1
   114   120   121    2
   115   121   123    1
   116    62    59    1
   117    51    48    1
   118    66    64   ar
   119    82    83    1
   120    82    80   am
   121    84    83    1
   122    59    58    1
   123    59    60    1
   124    79    80    1
   125    48    49    1
   126    48    47    1
   127    80    81    2
   128    45    44    1
   129    73    72    1
   130    49    50    2
   131    46    44    1
   132    60    61    2
   133    44    43    1
   134    72    69    1
   135    42    41    2
   136    68    69    1
   137    69    70    1
   138    43    40    1
   139    40    41    1
   140    40    39    1
   141    70    71    2
