@<TRIPOS>MOLECULE
tmp/1f40A00.pdb
 138 137 0 0 0
SMALL
GASTEIGER

@<TRIPOS>ATOM
      1  N          5.0540    4.4100   -3.6640 N.3    26  TYR26      -0.1241
      2  CA         4.0420    4.5810   -4.6900 C.3    26  TYR26       0.1605
      3  C          3.6630    6.0560   -4.8800 C.2    26  TYR26       0.2264
      4  O          3.8510    6.8520   -3.9420 O.2    26  TYR26      -0.2867
      5  CB         2.7750    3.7370   -4.3280 C.3    26  TYR26       0.0534
      6  CG         1.9150    4.2280   -3.1730 C.ar   26  TYR26      -0.0201
      7  CD1        0.9190    5.1760   -3.4270 C.ar   26  TYR26      -0.0009
      8  CD2        2.1310    3.7990   -1.8720 C.ar   26  TYR26      -0.0009
      9  CE1        0.1590    5.6810   -2.3880 C.ar   26  TYR26       0.0417
     10  CE2        1.3700    4.3150   -0.8180 C.ar   26  TYR26       0.0417
     11  CZ         0.3870    5.2550   -1.0860 C.ar   26  TYR26       0.1957
     12  OH        -0.3810    5.7710   -0.0620 O.3    26  TYR26      -0.2866
     13  N         -3.0820   11.9360   -6.4010 N.3    36  PHE36      -0.1227
     14  CA        -3.9470   12.0210   -5.2340 C.3    36  PHE36       0.1736
     15  C         -3.1910   11.6190   -3.9670 C.2    36  PHE36       0.2595
     16  O         -3.6530   11.8930   -2.8540 O.2    36  PHE36      -0.2718
     17  CB        -5.2000   11.1460   -5.4310 C.3    36  PHE36       0.0547
     18  CG        -5.0370    9.6870   -5.8380 C.ar   36  PHE36      -0.0202
     19  CD1       -4.7920    8.7120   -4.8680 C.ar   36  PHE36      -0.0042
     20  CD2       -5.2080    9.3380   -7.1760 C.ar   36  PHE36      -0.0042
     21  CE1       -4.7290    7.3850   -5.2500 C.ar   36  PHE36      -0.0003
     22  CE2       -5.1440    7.9980   -7.5330 C.ar   36  PHE36      -0.0003
     23  CZ        -4.9060    7.0260   -6.5750 C.ar   36  PHE36      -0.0000
     24  N         -2.0570   10.9290   -4.0970 N.am   37  ASP37      -0.1974
     25  CA        -1.2410   10.5640   -2.9240 C.3    37  ASP37       0.1709
     26  C          0.0740    9.9450   -3.3600 C.2    37  ASP37       0.2293
     27  O          0.1290    9.4320   -4.4680 O.2    37  ASP37      -0.2864
     28  CB        -1.9130    9.5320   -1.9950 C.3    37  ASP37       0.1436
     29  CG        -1.1960    9.4750   -0.6350 C.2    37  ASP37       0.3671
     30  OD1       -0.9870   10.5200   -0.0280 O.co2  37  ASP37      -0.2456
     31  OD2       -0.7930    8.4210   -0.1850 O.co2  37  ASP37      -0.2456
     32  N          5.4290    2.3420    2.0010 N.3    46  PHE46      -0.1241
     33  CA         4.1720    1.8630    2.5220 C.3    46  PHE46       0.1605
     34  C          4.3100    0.3550    2.6660 C.2    46  PHE46       0.2264
     35  O          4.8390   -0.2790    1.7570 O.2    46  PHE46      -0.2867
     36  CB         3.0740    2.2370    1.5270 C.3    46  PHE46       0.0534
     37  CG         1.7060    1.7120    1.8690 C.ar   46  PHE46      -0.0203
     38  CD1        0.9800    2.2880    2.8860 C.ar   46  PHE46      -0.0042
     39  CD2        1.1910    0.6580    1.1570 C.ar   46  PHE46      -0.0042
     40  CE1       -0.2690    1.7960    3.1860 C.ar   46  PHE46      -0.0003
     41  CE2       -0.0570    0.1780    1.4730 C.ar   46  PHE46      -0.0003
     42  CZ        -0.7980    0.7400    2.4890 C.ar   46  PHE46      -0.0000
     43  N         -6.0930   -8.9870    2.3070 N.3    53  GLN53      -0.1231
     44  CA        -7.2810   -8.2200    1.9470 C.3    53  GLN53       0.1698
     45  C         -7.3290   -6.8320    2.5730 C.2    53  GLN53       0.2592
     46  O         -8.3790   -6.3610    3.0210 O.2    53  GLN53      -0.2718
     47  CB        -8.5470   -8.9590    2.3540 C.3    53  GLN53       0.0381
     48  CG        -8.8450  -10.2350    1.6180 C.3    53  GLN53       0.0905
     49  CD        -9.8080  -11.0870    2.4300 C.2    53  GLN53       0.2608
     50  OE1      -10.7940  -10.6300    3.0150 O.2    53  GLN53      -0.2717
     51  NE2       -9.5170  -12.3820    2.4730 N.am   53  GLN53      -0.0878
     52  N         -6.1770   -6.1600    2.6320 N.am   54  GLU54      -0.1966
     53  CA        -6.1690   -4.8270    3.1790 C.3    54  GLU54       0.1733
     54  C         -5.8190   -3.7300    2.1810 C.2    54  GLU54       0.2616
     55  O         -5.7510   -2.5780    2.5670 O.2    54  GLU54      -0.2715
     56  CB        -5.2200   -4.7630    4.3280 C.3    54  GLU54       0.0429
     57  CG        -3.7690   -5.1010    3.9900 C.3    54  GLU54       0.1163
     58  CD        -2.8550   -5.0190    5.2020 C.2    54  GLU54       0.3649
     59  OE1       -3.3430   -4.7480    6.3040 O.co2  54  GLU54      -0.2457
     60  OE2       -1.6580   -5.2490    5.0630 O.co2  54  GLU54      -0.2457
     61  N         -5.5440   -4.0790    0.9350 N.am   55  VAL55      -0.1963
     62  CA        -5.3640   -3.1290   -0.1440 C.3    55  VAL55       0.1727
     63  C         -6.3800   -3.4630   -1.2470 C.2    55  VAL55       0.2616
     64  O         -7.0960   -4.4880   -1.1720 O.2    55  VAL55      -0.2715
     65  CB        -3.9250   -3.1880   -0.7260 C.3    55  VAL55       0.0290
     66  CG1       -3.0430   -2.5060    0.2970 C.3    55  VAL55       0.0023
     67  CG2       -3.4830   -4.6190   -1.0700 C.3    55  VAL55       0.0023
     68  N         -6.4870   -2.6180   -2.2710 N.am   56  ILE56      -0.1977
     69  CA        -7.4490   -2.8440   -3.3250 C.3    56  ILE56       0.1596
     70  C         -6.9990   -4.0280   -4.1940 C.2    56  ILE56       0.2287
     71  O         -5.7920   -4.3480   -4.3430 O.2    56  ILE56      -0.2864
     72  CB        -7.6690   -1.5260   -4.2180 C.3    56  ILE56       0.0276
     73  CG1       -6.3550   -0.8710   -4.6630 C.3    56  ILE56       0.0022
     74  CG2       -8.4880   -0.5270   -3.3910 C.3    56  ILE56       0.0022
     75  CD1       -6.4700    0.2020   -5.7780 C.3    56  ILE56       0.0001
     76  N         -4.0810   -4.0170   -6.6530 N.3    59  TRP59      -0.1241
     77  CA        -2.7630   -4.0740   -5.9880 C.3    59  TRP59       0.1605
     78  C         -2.3590   -5.5220   -5.6550 C.2    59  TRP59       0.2264
     79  O         -1.2920   -5.9890   -6.1070 O.2    59  TRP59      -0.2867
     80  CB        -2.7750   -3.2300   -4.6960 C.3    59  TRP59       0.0550
     81  CG        -2.2180   -1.8340   -4.9330 C.ar   59  TRP59       0.0003
     82  CD1       -2.7500   -0.9720   -5.8770 C.ar   59  TRP59       0.0946
     83  CD2       -1.1220   -1.2860   -4.2860 C.ar   59  TRP59       0.0152
     84  NE1       -1.9910    0.1050   -5.8240 N.ar   59  TRP59      -0.2442
     85  CE2       -1.0160   -0.0420   -4.8980 C.ar   59  TRP59       0.0810
     86  CE3       -0.2360   -1.6890   -3.2890 C.ar   59  TRP59       0.0012
     87  CZ2       -0.0180    0.8260   -4.5220 C.ar   59  TRP59       0.0191
     88  CZ3        0.7560   -0.8240   -2.9220 C.ar   59  TRP59       0.0001
     89  CH2        0.8620    0.4160   -3.5300 C.ar   59  TRP59       0.0015
     90  N        -12.0100    1.1580   -6.3250 N.3    82  TYR82      -0.1241
     91  CA       -13.0750    1.6200   -5.4260 C.3    82  TYR82       0.1605
     92  C        -14.5070    1.5970   -6.0220 C.2    82  TYR82       0.2264
     93  O        -15.4960    2.0290   -5.3950 O.2    82  TYR82      -0.2867
     94  CB       -12.6700    3.0310   -4.9790 C.3    82  TYR82       0.0534
     95  CG       -11.4020    3.0330   -4.1520 C.ar   82  TYR82      -0.0201
     96  CD1      -11.3930    2.5030   -2.8550 C.ar   82  TYR82      -0.0009
     97  CD2      -10.2300    3.5210   -4.7150 C.ar   82  TYR82      -0.0009
     98  CE1      -10.2180    2.4460   -2.1240 C.ar   82  TYR82       0.0417
     99  CE2       -9.0580    3.4660   -3.9890 C.ar   82  TYR82       0.0417
    100  CZ        -9.0600    2.9340   -2.7130 C.ar   82  TYR82       0.1957
    101  OH        -7.8620    2.8860   -2.0290 O.3    82  TYR82      -0.2866
    102  N        -13.4960    6.8930   -3.2010 N.3    87  HIS87      -0.1241
    103  CA       -13.0290    7.0060   -1.8270 C.3    87  HIS87       0.1621
    104  C        -13.4730    8.3920   -1.4230 C.2    87  HIS87       0.2264
    105  O        -12.9330    9.3400   -2.0240 O.2    87  HIS87      -0.2867
    106  CB       -11.5140    6.9170   -1.7440 C.3    87  HIS87       0.0745
    107  CG       -10.9970    6.8480   -0.3080 C.ar   87  HIS87       0.0817
    108  ND1      -10.7870    7.8410    0.5760 N.ar   87  HIS87      -0.2268
    109  CD2      -10.6670    5.6660    0.3260 C.ar   87  HIS87       0.1154
    110  CE1      -10.3580    7.3110    1.6970 C.ar   87  HIS87       0.1986
    111  NE2      -10.2930    6.0020    1.5330 N.ar   87  HIS87      -0.2212
    112  N        -11.6440   11.8150   -2.1880 N.3    90  ILE90      -0.1231
    113  CA       -10.3930   11.6770   -2.9290 C.3    90  ILE90       0.1692
    114  C        -10.5320   11.0750   -4.3060 C.2    90  ILE90       0.2591
    115  O         -9.9820   11.5870   -5.2830 O.2    90  ILE90      -0.2718
    116  CB        -9.4020   10.8450   -2.0480 C.3    90  ILE90       0.0266
    117  CG1       -9.1620   11.6050   -0.7730 C.3    90  ILE90       0.0019
    118  CG2       -8.0200   10.6870   -2.6860 C.3    90  ILE90       0.0020
    119  CD1       -8.6140   10.7490    0.3610 C.3    90  ILE90       0.0001
    120  N        -11.2200    9.9410   -4.4240 N.am   91  ILE91      -0.1980
    121  CA       -11.3220    9.2460   -5.7100 C.3    91  ILE91       0.1595
    122  C        -12.7900    9.3860   -6.0630 C.2    91  ILE91       0.2287
    123  O        -13.5860    9.1000   -5.1730 O.2    91  ILE91      -0.2864
    124  CB       -10.9650    7.7310   -5.5880 C.3    91  ILE91       0.0276
    125  CG1       -9.5970    7.5220   -4.9520 C.3    91  ILE91       0.0022
    126  CG2      -10.9970    7.0950   -6.9580 C.3    91  ILE91       0.0022
    127  CD1       -8.4310    8.1350   -5.7360 C.3    91  ILE91       0.0001
    128  N         -1.1260    3.7430  -10.7530 N.3    99  PHE99      -0.1241
    129  CA        -0.1650    3.7960   -9.6620 C.3    99  PHE99       0.1605
    130  C          1.2500    3.5690  -10.2110 C.2    99  PHE99       0.2264
    131  O          1.4620    2.7090  -11.0640 O.2    99  PHE99      -0.2867
    132  CB        -0.4570    2.7190   -8.6390 C.3    99  PHE99       0.0534
    133  CG        -1.5710    3.0120   -7.6840 C.ar   99  PHE99      -0.0203
    134  CD1       -2.8830    2.6500   -8.0080 C.ar   99  PHE99      -0.0042
    135  CD2       -1.2840    3.6400   -6.4870 C.ar   99  PHE99      -0.0042
    136  CE1       -3.8830    2.9330   -7.1130 C.ar   99  PHE99      -0.0003
    137  CE2       -2.3040    3.9130   -5.6010 C.ar   99  PHE99      -0.0003
    138  CZ        -3.6000    3.5610   -5.9140 C.ar   99  PHE99      -0.0000
@<TRIPOS>BOND
     1   131   130    2
     2   128   129    1
     3   130   129    1
     4   129   132    1
     5   132   133    1
     6   134   133   ar
     7   134   136   ar
     8   133   135   ar
     9    22    20   ar
    10    22    23   ar
    11    20    18   ar
    12   136   138   ar
    13   126   124    1
    14    76    77    1
    15    23    21   ar
    16   135   137   ar
    17    13    14    1
    18    90    91    1
    19    79    78    2
    20   122   121    1
    21   122   123    2
    22    92    91    1
    23    92    93    2
    24    77    78    1
    25    77    80    1
    26   138   137   ar
    27    82    84   ar
    28    82    81   ar
    29    18    17    1
    30    18    19   ar
    31    84    85   ar
    32    75    73    1
    33   127   125    1
    34   121   124    1
    35   121   120    1
    36   124   125    1
    37    17    14    1
    38    91    94    1
    39   115   114    2
    40    21    19   ar
    41    14    15    1
    42    94    95    1
    43    81    80    1
    44    81    83   ar
    45    85    87   ar
    46    85    83   ar
    47     3     2    1
    48     3     4    2
    49    97    95   ar
    50    97    99   ar
    51     2     5    1
    52     2     1    1
    53    73    72    1
    54    87    89   ar
    55    27    26    2
    56   120   114   am
    57    71    70    2
    58     5     6    1
    59   114   113    1
    60    83    86   ar
    61    72    74    1
    62    72    69    1
    63    70    69    1
    64    95    96   ar
    65    24    15   am
    66    24    25    1
    67    99   100   ar
    68    15    16    2
    69    89    88   ar
    70     7     6   ar
    71     7     9   ar
    72    26    25    1
    73    69    68    1
    74    86    88   ar
    75   102   103    1
    76     6     8   ar
    77   113   112    1
    78   113   116    1
    79    25    28    1
    80    96    98   ar
    81   100    98   ar
    82   100   101    1
    83   118   116    1
    84     9    11   ar
    85    68    63   am
    86   116   117    1
    87   105   104    2
    88    28    29    1
    89     8    10   ar
    90   103   106    1
    91   103   104    1
    92   106   107    1
    93    63    64    2
    94    63    62    1
    95    11    10   ar
    96    11    12    1
    97    67    65    1
    98   117   119    1
    99    65    62    1
   100    65    66    1
   101    29    31   ar
   102    29    30   ar
   103   107   109   ar
   104   107   108   ar
   105    62    61    1
   106   109   111   ar
   107   108   110   ar
   108    61    54   am
   109    39    41   ar
   110    39    37   ar
   111    41    42   ar
   112    36    37    1
   113    36    33    1
   114   111   110   ar
   115    48    47    1
   116    48    49    1
   117    35    34    2
   118    37    38   ar
   119    44    43    1
   120    44    47    1
   121    44    45    1
   122    32    33    1
   123    54    55    2
   124    54    53    1
   125    49    51   am
   126    49    50    2
   127    42    40   ar
   128    33    34    1
   129    45    52   am
   130    45    46    2
   131    52    53    1
   132    38    40   ar
   133    53    56    1
   134    57    56    1
   135    57    58    1
   136    60    58   ar
   137    58    59   ar
