@<TRIPOS>MOLECULE
tmp/1f42A00.pdb
 126 122 0 0 0
SMALL
GASTEIGER

@<TRIPOS>ATOM
      1  N         31.1180   33.3020    3.4010 N.3     1  ILE1       -0.1231
      2  CA        29.8400   32.6450    3.0290 C.3     1  ILE1        0.1692
      3  C         28.7870   33.7040    2.6490 C.2     1  ILE1        0.2592
      4  O         28.6440   34.7280    3.3430 O.2     1  ILE1       -0.2718
      5  CB        29.3050   31.7090    4.1950 C.3     1  ILE1        0.0266
      6  CG1       28.1250   30.8610    3.7240 C.3     1  ILE1        0.0019
      7  CG2       28.8970   32.5240    5.4420 C.3     1  ILE1        0.0020
      8  CD1       27.6020   29.8190    4.7430 C.3     1  ILE1        0.0001
      9  N         28.0570   33.4360    1.5600 N.am    2  TRP2       -0.1962
     10  CA        26.9850   34.3120    1.0970 C.3     2  TRP2        0.1771
     11  C         25.7970   33.5230    0.5600 C.2     2  TRP2        0.2620
     12  O         25.9440   32.3860    0.0540 O.2     2  TRP2       -0.2715
     13  CB        27.4720   35.3190    0.0350 C.3     2  TRP2        0.0590
     14  CG        28.2630   34.7230   -1.1270 C.ar    2  TRP2        0.0006
     15  CD1       29.5900   34.4250   -1.1310 C.ar    2  TRP2        0.0946
     16  CD2       27.7850   34.4360   -2.4400 C.ar    2  TRP2        0.0152
     17  NE1       29.9740   33.9830   -2.3600 N.ar    2  TRP2       -0.2442
     18  CE2       28.8900   33.9840   -3.1930 C.ar    2  TRP2        0.0810
     19  CE3       26.5310   34.5220   -3.0630 C.ar    2  TRP2        0.0012
     20  CZ2       28.7850   33.6150   -4.5690 C.ar    2  TRP2        0.0191
     21  CZ3       26.4190   34.1540   -4.4320 C.ar    2  TRP2        0.0001
     22  CH2       27.5430   33.7090   -5.1620 C.ar    2  TRP2        0.0015
     23  N         24.6420   34.1810    0.5850 N.am    3  GLU3       -0.1963
     24  CA        23.3970   33.5910    0.1380 C.3     3  GLU3        0.1733
     25  C         23.2240   33.7120   -1.3680 C.2     3  GLU3        0.2616
     26  O         23.2680   34.8120   -1.9090 O.2     3  GLU3       -0.2715
     27  CB        22.2590   34.2680    0.8640 C.3     3  GLU3        0.0429
     28  CG        20.9360   33.5270    0.8290 C.3     3  GLU3        0.1163
     29  CD        19.9060   34.1750    1.7390 C.2     3  GLU3        0.3649
     30  OE1       18.7720   34.4170    1.2770 O.co2   3  GLU3       -0.2457
     31  OE2       20.2490   34.4620    2.9080 O.co2   3  GLU3       -0.2457
     32  N         23.0700   32.5730   -2.0400 N.am    4  LEU4       -0.1977
     33  CA        22.8870   32.5650   -3.4770 C.3     4  LEU4        0.1596
     34  C         21.3950   32.8220   -3.7140 C.2     4  LEU4        0.2287
     35  O         21.0260   33.7290   -4.4820 O.2     4  LEU4       -0.2864
     36  CB        23.3440   31.2320   -4.0660 C.3     4  LEU4        0.0297
     37  CG        23.2170   31.0120   -5.5740 C.3     4  LEU4        0.0022
     38  CD1       24.0800   32.0110   -6.3160 C.3     4  LEU4        0.0001
     39  CD2       23.5960   29.5870   -5.9130 C.3     4  LEU4        0.0001
     40  N         33.5020   30.3470   -0.5290 N.3    12  GLU12      -0.1245
     41  CA        34.6750   30.5540   -1.3940 C.3    12  GLU12       0.1567
     42  C         35.9530   30.0110   -0.7510 C.2    12  GLU12       0.2260
     43  O         36.4280   30.5050    0.2790 O.2    12  GLU12      -0.2867
     44  CB        34.8520   32.0360   -1.7320 C.3    12  GLU12       0.0388
     45  CG        33.7520   32.6660   -2.5580 C.3    12  GLU12       0.1160
     46  CD        33.8320   34.1970   -2.5850 C.2    12  GLU12       0.3649
     47  OE1       34.6930   34.7790   -1.8850 O.co2  12  GLU12      -0.2457
     48  OE2       33.0380   34.8300   -3.3210 O.co2  12  GLU12      -0.2457
     49  N         32.6860   27.1080   -4.0520 N.3    83  HIS83      -0.1241
     50  CA        33.2130   27.7740   -5.2190 C.3    83  HIS83       0.1621
     51  C         34.7420   27.7260   -5.0740 C.2    83  HIS83       0.2264
     52  O         35.3360   28.5550   -4.3710 O.2    83  HIS83      -0.2867
     53  CB        32.7080   29.2140   -5.2780 C.3    83  HIS83       0.0745
     54  CG        32.8190   29.8510   -6.6350 C.ar   83  HIS83       0.0817
     55  ND1       32.4820   31.1690   -6.8610 N.ar   83  HIS83      -0.2268
     56  CD2       33.2210   29.3570   -7.8310 C.ar   83  HIS83       0.1154
     57  CE1       32.6630   31.4560   -8.1370 C.ar   83  HIS83       0.1986
     58  NE2       33.1160   30.3750   -8.7470 N.ar   83  HIS83      -0.2212
     59  N         38.6450   28.0800   -5.8740 N.3    85  LYS85      -0.1245
     60  CA        39.4870   29.1180   -6.4630 C.3    85  LYS85       0.1561
     61  C         40.8930   28.5360   -6.5130 C.2    85  LYS85       0.2260
     62  O         41.6640   28.6600   -5.5460 O.2    85  LYS85      -0.2867
     63  CB        39.4650   30.4060   -5.6290 C.3    85  LYS85       0.0271
     64  CG        39.8380   31.6610   -6.4270 C.3    85  LYS85       0.0035
     65  CD        39.9250   32.9410   -5.5700 C.3    85  LYS85       0.0206
     66  CE        40.0960   34.1830   -6.4730 C.3    85  LYS85       0.1093
     67  NZ        40.2110   35.5250   -5.7980 N.3    85  LYS85      -0.1314
     68  N         38.8190   31.1430  -10.4060 N.3    90  TRP90      -0.1241
     69  CA        37.6280   30.2970  -10.2020 C.3    90  TRP90       0.1605
     70  C         37.5490   29.1450  -11.1800 C.2    90  TRP90       0.2264
     71  O         37.7890   29.3220  -12.3820 O.2    90  TRP90      -0.2867
     72  CB        36.3280   31.1170  -10.3310 C.3    90  TRP90       0.0550
     73  CG        36.2860   32.3140   -9.4810 C.ar   90  TRP90       0.0003
     74  CD1       36.4380   33.6010   -9.8890 C.ar   90  TRP90       0.0946
     75  CD2       36.1890   32.3530   -8.0510 C.ar   90  TRP90       0.0152
     76  NE1       36.4610   34.4520   -8.8120 N.ar   90  TRP90      -0.2442
     77  CE2       36.3030   33.7180   -7.6660 C.ar   90  TRP90       0.0810
     78  CE3       36.0320   31.3670   -7.0450 C.ar   90  TRP90       0.0012
     79  CZ2       36.2620   34.1340   -6.3070 C.ar   90  TRP90       0.0191
     80  CZ3       35.9940   31.7740   -5.6860 C.ar   90  TRP90       0.0001
     81  CH2       36.1090   33.1530   -5.3380 C.ar   90  TRP90       0.0015
     82  N         20.2520   34.9200  -15.7340 N.3   135  LYS135     -0.1245
     83  CA        19.6790   36.2300  -15.4460 C.3   135  LYS135      0.1561
     84  C         20.3630   37.1690  -16.4420 C.2   135  LYS135      0.2260
     85  O         21.5190   36.9550  -16.8320 O.2   135  LYS135     -0.2867
     86  CB        19.9640   36.6540  -13.9580 C.3   135  LYS135      0.0271
     87  CG        19.3930   35.7570  -12.8700 C.3   135  LYS135      0.0035
     88  CD        19.8080   36.2650  -11.4790 C.3   135  LYS135      0.0206
     89  CE        21.3280   36.3830  -11.2280 C.3   135  LYS135      0.1093
     90  NZ        22.0420   35.1220  -11.3900 N.3   135  LYS135     -0.1314
     91  N         24.2920   36.5340  -17.1860 N.3   184  MET184     -0.1245
     92  CA        24.8990   35.9220  -16.0040 C.3   184  MET184      0.1570
     93  C         24.3160   34.5600  -15.8130 C.2   184  MET184      0.2261
     94  O         23.0970   34.4040  -15.7910 O.2   184  MET184     -0.2867
     95  CB        24.6580   36.7610  -14.7550 C.3   184  MET184      0.0387
     96  CG        25.6520   37.8780  -14.5860 C.3   184  MET184      0.0595
     97  SD        24.9190   39.4450  -14.0670 S.3   184  MET184     -0.1393
     98  CE        23.7920   39.8170  -15.4820 C.3   184  MET184      0.0692
     99  N         24.5650   30.9390  -13.4920 N.3   186  ASP186     -0.1239
    100  CA        25.0180   30.1780  -12.3330 C.3   186  ASP186      0.1674
    101  C         24.9390   28.7050  -12.7620 C.2   186  ASP186      0.2266
    102  O         24.0010   28.3030  -13.4780 O.2   186  ASP186     -0.2867
    103  CB        24.1180   30.4180  -11.1150 C.3   186  ASP186      0.1410
    104  CG        24.3880   31.7520  -10.4260 C.2   186  ASP186      0.3668
    105  OD1       25.5020   32.2980  -10.5280 O.co2 186  ASP186     -0.2456
    106  OD2       23.4700   32.2610   -9.7730 O.co2 186  ASP186     -0.2456
    107  N         29.6840   25.0120   -7.1190 N.3   193  TYR193     -0.1241
    108  CA        29.0510   26.2340   -7.6160 C.3   193  TYR193      0.1605
    109  C         30.0010   26.9250   -8.5760 C.2   193  TYR193      0.2264
    110  O         31.1340   27.1940   -8.2170 O.2   193  TYR193     -0.2867
    111  CB        28.6980   27.2330   -6.4810 C.3   193  TYR193      0.0534
    112  CG        28.2460   28.5970   -6.9980 C.ar  193  TYR193     -0.0201
    113  CD1       26.9340   28.7990   -7.4830 C.ar  193  TYR193     -0.0009
    114  CD2       29.1490   29.6700   -7.0770 C.ar  193  TYR193     -0.0009
    115  CE1       26.5410   30.0280   -8.0320 C.ar  193  TYR193      0.0417
    116  CE2       28.7710   30.9000   -7.6240 C.ar  193  TYR193      0.0417
    117  CZ        27.4690   31.0750   -8.0940 C.ar  193  TYR193      0.1957
    118  OH        27.1190   32.3150   -8.5720 O.3   193  TYR193     -0.2866
    119  N         30.3610   30.2070  -11.7620 N.3   195  ASN195     -0.1240
    120  CA        29.9290   31.4800  -12.2860 C.3   195  ASN195      0.1653
    121  C         30.3470   31.7830  -13.7320 C.2   195  ASN195      0.2266
    122  O         31.5360   31.6830  -14.0460 O.2   195  ASN195     -0.2867
    123  CB        30.6070   32.5260  -11.4080 C.3   195  ASN195      0.1155
    124  CG        29.7130   33.5790  -11.0360 C.2   195  ASN195      0.2627
    125  OD1       29.3520   34.3630  -11.8640 O.2   195  ASN195     -0.2716
    126  ND2       29.3800   33.6740   -9.7720 N.am  195  ASN195     -0.0877
@<TRIPOS>BOND
     1    91    92    1
     2    85    84    2
     3    84    83    1
     4    92    93    1
     5    92    95    1
     6    93    94    2
     7    82    83    1
     8    98    97    1
     9    83    86    1
    10    95    96    1
    11    96    97    1
    12   122   121    2
    13    86    87    1
    14   121   120    1
    15    99   100    1
    16   102   101    2
    17    87    88    1
    18   101   100    1
    19    71    70    2
    20   100   103    1
    21   120   119    1
    22   120   123    1
    23   125   124    2
    24    88    89    1
    25   123   124    1
    26    90    89    1
    27    70    69    1
    28   103   104    1
    29   124   126   am
    30   105   104   ar
    31   104   106   ar
    32    68    69    1
    33    72    69    1
    34    72    73    1
    35    74    73   ar
    36    74    76   ar
    37    73    75   ar
    38    76    77   ar
    39    58    57   ar
    40    58    56   ar
    41   109   110    2
    42   109   108    1
    43   118   117    1
    44    57    55   ar
    45   117   115   ar
    46   117   116   ar
    47    75    77   ar
    48    75    78   ar
    49   115   113   ar
    50    56    54   ar
    51    77    79   ar
    52   116   114   ar
    53   108   107    1
    54   108   111    1
    55   113   112   ar
    56   114   112   ar
    57    78    80   ar
    58   112   111    1
    59    55    54   ar
    60    54    53    1
    61    61    60    1
    62    61    62    2
    63    66    67    1
    64    66    65    1
    65    60    59    1
    66    60    63    1
    67    64    63    1
    68    64    65    1
    69    38    37    1
    70    79    81   ar
    71    39    37    1
    72    80    81   ar
    73    37    36    1
    74    53    50    1
    75    50    51    1
    76    50    49    1
    77    22    20   ar
    78    22    21   ar
    79    51    52    2
    80    20    18   ar
    81    35    34    2
    82    21    19   ar
    83    36    33    1
    84    34    33    1
    85    33    32    1
    86    48    46   ar
    87    18    16   ar
    88    18    17   ar
    89    19    16   ar
    90    46    45    1
    91    46    47   ar
    92    45    44    1
    93    16    14   ar
    94    17    15   ar
    95    32    25   am
    96    26    25    2
    97    44    41    1
    98    41    42    1
    99    41    40    1
   100    25    24    1
   101    15    14   ar
   102    14    13    1
   103    42    43    2
   104    13    10    1
   105    12    11    2
   106    24    23    1
   107    24    27    1
   108    11    23   am
   109    11    10    1
   110    28    27    1
   111    28    29    1
   112    10     9    1
   113    30    29   ar
   114     9     3   am
   115    29    31   ar
   116     3     2    1
   117     3     4    2
   118     2     1    1
   119     2     5    1
   120     6     5    1
   121     6     8    1
   122     5     7    1
