@<TRIPOS>MOLECULE
tmp/1f48A01.pdb
 181 175 0 0 0
SMALL
GASTEIGER

@<TRIPOS>ATOM
      1  N         20.7540    6.3960   91.3370 N.3   208  GLN208     -0.1231
      2  CA        19.5090    6.6050   92.0270 C.3   208  GLN208      0.1698
      3  C         18.5600    5.6400   91.3320 C.2   208  GLN208      0.2592
      4  O         18.4610    5.6280   90.1150 O.2   208  GLN208     -0.2718
      5  CB        19.1200    8.0820   91.8330 C.3   208  GLN208      0.0381
      6  CG        18.2310    8.7250   92.9020 C.3   208  GLN208      0.0905
      7  CD        16.7440    8.5320   92.6210 C.2   208  GLN208      0.2608
      8  OE1       16.2820    8.7200   91.4880 O.2   208  GLN208     -0.2717
      9  NE2       15.9840    8.1680   93.6560 N.am  208  GLN208     -0.0878
     10  N         17.8730    4.8220   92.1150 N.am  209  LYS209     -0.1966
     11  CA        16.9560    3.7940   91.6110 C.3   209  LYS209      0.1728
     12  C         15.9780    4.2620   90.5230 C.2   209  LYS209      0.2616
     13  O         15.7540    3.5720   89.5140 O.2   209  LYS209     -0.2715
     14  CB        16.1890    3.1900   92.8070 C.3   209  LYS209      0.0311
     15  CG        15.3760    1.9480   92.5170 C.3   209  LYS209      0.0038
     16  CD        14.6570    1.4770   93.7690 C.3   209  LYS209      0.0206
     17  CE        13.7430    0.2850   93.4780 C.3   209  LYS209      0.1093
     18  NZ        14.4740   -0.9750   93.1160 N.3   209  LYS209     -0.1314
     19  N         15.4020    5.4360   90.7310 N.am  210  SER210     -0.1950
     20  CA        14.4410    5.9890   89.7960 C.3   210  SER210      0.1924
     21  C         15.0400    6.2690   88.4240 C.2   210  SER210      0.2314
     22  O         14.5850    5.7330   87.4170 O.2   210  SER210     -0.2863
     23  CB        13.8440    7.2740   90.3720 C.3   210  SER210      0.2116
     24  OG        12.4270    7.1990   90.3980 O.3   210  SER210     -0.2180
     25  N         23.1180    4.1220   99.8400 N.3   255  ARG255     -0.1245
     26  CA        22.0250    3.9220   98.9010 C.3   255  ARG255      0.1563
     27  C         22.5390    3.7620   97.4600 C.2   255  ARG255      0.2260
     28  O         22.0230    2.9360   96.6880 O.2   255  ARG255     -0.2867
     29  CB        21.0710    5.1030   99.0060 C.3   255  ARG255      0.0307
     30  CG        19.8090    5.0030   98.2110 C.3   255  ARG255      0.0489
     31  CD        19.1150    6.3510   98.3210 C.3   255  ARG255      0.2205
     32  NE        20.0500    7.4420   98.0300 N.pl3 255  ARG255     -0.0865
     33  CZ        19.8340    8.7220   98.3170 C.cat 255  ARG255      0.5346
     34  NH1       18.7110    9.0960   98.9130 N.pl3 255  ARG255      0.1354
     35  NH2       20.7430    9.6330   98.0050 N.pl3 255  ARG255      0.1354
     36  N         10.6660   15.3600   84.6880 N.3   324  GLY324     -0.1210
     37  CA        10.5880   14.0710   85.3420 C.3   324  GLY324      0.1956
     38  C         11.6640   13.8870   86.3840 C.2   324  GLY324      0.2612
     39  O         12.7860   14.4130   86.2170 O.2   324  GLY324     -0.2717
     40  N         11.2970   13.1780   87.4610 N.am  325  GLY325     -0.1942
     41  CA        12.2230   12.8770   88.5430 C.3   325  GLY325      0.2014
     42  C         12.6700   13.9850   89.4700 C.2   325  GLY325      0.2639
     43  O         13.5740   13.7670   90.2780 O.2   325  GLY325     -0.2714
     44  N         12.0660   15.1690   89.3820 N.am  326  VAL326     -0.1963
     45  CA        12.4900   16.2500   90.2570 C.3   326  VAL326      0.1727
     46  C         11.8350   16.1250   91.6280 C.2   326  VAL326      0.2617
     47  O         12.2900   16.7160   92.5820 O.2   326  VAL326     -0.2715
     48  CB        12.2060   17.6850   89.6520 C.3   326  VAL326      0.0290
     49  CG1       12.8290   17.8090   88.2670 C.3   326  VAL326      0.0023
     50  CG2       10.7160   17.9780   89.5960 C.3   326  VAL326      0.0023
     51  N         10.7840   15.3250   91.7290 N.am  327  GLY327     -0.1940
     52  CA        10.1470   15.1550   93.0110 C.3   327  GLY327      0.2014
     53  C          8.7060   15.6030   93.1290 C.2   327  GLY327      0.2639
     54  O          8.2560   15.8780   94.2420 O.2   327  GLY327     -0.2714
     55  N          7.9740   15.6660   92.0160 N.am  328  LYS328     -0.1963
     56  CA         6.5830   16.0930   92.0740 C.3   328  LYS328      0.1728
     57  C          5.6920   15.1550   92.9040 C.2   328  LYS328      0.2617
     58  O          4.8850   15.6020   93.7280 O.2   328  LYS328     -0.2715
     59  CB         6.0070   16.2340   90.6530 C.3   328  LYS328      0.0311
     60  CG         6.6710   17.3260   89.7830 C.3   328  LYS328      0.0038
     61  CD         6.0950   17.3620   88.3680 C.3   328  LYS328      0.0206
     62  CE         6.0930   15.9650   87.6960 C.3   328  LYS328      0.1093
     63  NZ         7.4330   15.3160   87.6910 N.3   328  LYS328     -0.1314
     64  N          5.8100   13.8570   92.6880 N.am  329  THR329     -0.1937
     65  CA         4.9830   12.9180   93.4390 C.3   329  THR329      0.2028
     66  C          5.3310   12.9630   94.9380 C.2   329  THR329      0.2643
     67  O          4.4760   12.7950   95.8050 O.2   329  THR329     -0.2714
     68  CB         5.1540   11.4850   92.8820 C.3   329  THR329      0.1808
     69  OG1        4.6280   11.4380   91.5580 O.3   329  THR329     -0.2208
     70  CG2        4.4220   10.4770   93.7280 C.3   329  THR329      0.0379
     71  N          6.5960   13.2070   95.2310 N.am  330  THR330     -0.1936
     72  CA         7.0340   13.2570   96.6020 C.3   330  THR330      0.2028
     73  C          6.5010   14.5330   97.2260 C.2   330  THR330      0.2642
     74  O          5.9850   14.5040   98.3370 O.2   330  THR330     -0.2714
     75  CB         8.5830   13.2530   96.7230 C.3   330  THR330      0.1808
     76  OG1        9.1260   12.0760   96.1220 O.3   330  THR330     -0.2208
     77  CG2        8.9840   13.2460   98.1780 C.3   330  THR330      0.0379
     78  N          6.6330   15.6590   96.5220 N.am  331  MET331     -0.1976
     79  CA         6.1570   16.9150   97.0700 C.3   331  MET331      0.1605
     80  C          4.6530   16.8600   97.2130 C.2   331  MET331      0.2287
     81  O          4.1050   17.2500   98.2370 O.2   331  MET331     -0.2864
     82  CB         6.5520   18.1020   96.1980 C.3   331  MET331      0.0413
     83  CG         8.0370   18.3800   96.1490 C.3   331  MET331      0.0598
     84  SD         8.7680   18.5270   97.7590 S.3   331  MET331     -0.1393
     85  CE         9.8750   17.1310   97.7050 C.3   331  MET331      0.0692
     86  N          1.3050    7.5280   89.7500 N.3   352  ASP352     -0.1239
     87  CA         2.3310    6.5520   90.0940 C.3   352  ASP352      0.1674
     88  C          1.8500    5.5900   91.1760 C.2   352  ASP352      0.2266
     89  O          1.3960    6.0120   92.2420 O.2   352  ASP352     -0.2867
     90  CB         3.5830    7.2710   90.5840 C.3   352  ASP352      0.1410
     91  CG         4.7290    6.3280   90.8300 C.2   352  ASP352      0.3668
     92  OD1        5.8100    6.8040   91.2450 O.co2 352  ASP352     -0.2456
     93  OD2        4.5430    5.1100   90.6020 O.co2 352  ASP352     -0.2456
     94  N          0.0110   15.5100   91.2570 N.3   427  ASP427     -0.1239
     95  CA         1.4710   15.4080   91.1180 C.3   427  ASP427      0.1674
     96  C          2.0390   15.5590   89.7160 C.2   427  ASP427      0.2266
     97  O          3.2330   15.3680   89.5060 O.2   427  ASP427     -0.2867
     98  CB         1.9930   14.1070   91.7570 C.3   427  ASP427      0.1410
     99  CG         1.5620   12.8400   91.0200 C.2   427  ASP427      0.3668
    100  OD1        0.6930   12.8710   90.1110 O.co2 427  ASP427     -0.2456
    101  OD2        2.1220   11.7860   91.3830 O.co2 427  ASP427     -0.2456
    102  N         13.6700   21.2480   95.3780 N.3   489  ASN489     -0.1225
    103  CA        13.8770   19.9940   96.0810 C.3   489  ASN489      0.1785
    104  C         15.3190   19.4900   96.0560 C.2   489  ASN489      0.2597
    105  O         16.1760   20.0640   95.3820 O.2   489  ASN489     -0.2718
    106  CB        12.9130   18.9470   95.5270 C.3   489  ASN489      0.1169
    107  CG        13.0060   17.6320   96.2600 C.2   489  ASN489      0.2627
    108  OD1       13.4040   17.5880   97.4230 O.2   489  ASN489     -0.2716
    109  ND2       12.6240   16.5530   95.5890 N.am  489  ASN489     -0.0877
    110  N         15.5790   18.4320   96.8250 N.am  490  ASN490     -0.1974
    111  CA        16.9150   17.8310   96.9650 C.3   490  ASN490      0.1688
    112  C         18.0120   18.8350   97.2720 C.2   490  ASN490      0.2292
    113  O         19.0410   18.8520   96.5890 O.2   490  ASN490     -0.2864
    114  CB        17.3320   17.0530   95.7060 C.3   490  ASN490      0.1181
    115  CG        16.6070   15.7280   95.5630 C.2   490  ASN490      0.2629
    116  OD1       15.7530   15.5630   94.6920 O.2   490  ASN490     -0.2716
    117  ND2       16.9460   14.7770   96.4160 N.am  490  ASN490     -0.0877
    118  N         13.8910   22.2770  100.2450 N.3   527  VAL527     -0.1231
    119  CA        13.7060   20.9540  100.7730 C.3   527  VAL527      0.1678
    120  C         15.0780   20.3110  100.7370 C.2   527  VAL527      0.2434
    121  O         15.8290   20.4000   99.7530 O.2   527  VAL527     -0.2733
    122  CB        12.6810   20.1830   99.9410 C.3   527  VAL527      0.0265
    123  CG1       12.5760   18.7640  100.4310 C.3   527  VAL527      0.0020
    124  CG2       11.3180   20.8690  100.0590 C.3   527  VAL527      0.0020
    125  N         15.4370   19.6570  101.8270 N.am  528  PRO528     -0.2718
    126  CA        16.7420   19.0110  101.9060 C.3   528  PRO528      0.1535
    127  C         16.7600   17.6410  101.2200 C.2   528  PRO528      0.2598
    128  O         15.7110   17.0210  101.0110 O.2   528  PRO528     -0.2715
    129  CB        16.9240   18.8750  103.4080 C.3   528  PRO528      0.0310
    130  CG        15.5130   18.3940  103.8210 C.3   528  PRO528      0.0237
    131  CD        14.5850   19.2830  102.9790 C.3   528  PRO528      0.0939
    132  N         17.9520   17.1890  100.8610 N.am  529  VAL529     -0.1964
    133  CA        18.1120   15.8460  100.3150 C.3   529  VAL529      0.1727
    134  C         17.9620   14.9910  101.5730 C.2   529  VAL529      0.2616
    135  O         18.7130   15.1820  102.5310 O.2   529  VAL529     -0.2715
    136  CB        19.5440   15.6100   99.7860 C.3   529  VAL529      0.0290
    137  CG1       19.6640   14.1840   99.2580 C.3   529  VAL529      0.0023
    138  CG2       19.8890   16.6280   98.7120 C.3   529  VAL529      0.0023
    139  N         17.0090   14.0670  101.5910 N.am  530  LEU530     -0.1963
    140  CA        16.8060   13.2400  102.7770 C.3   530  LEU530      0.1728
    141  C         17.6760   12.0170  102.9570 C.2   530  LEU530      0.2616
    142  O         17.6410   11.4000  104.0290 O.2   530  LEU530     -0.2715
    143  CB        15.3680   12.7640  102.8740 C.3   530  LEU530      0.0311
    144  CG        14.4410   13.6670  103.6700 C.3   530  LEU530      0.0022
    145  CD1       13.3100   12.8110  104.2380 C.3   530  LEU530      0.0001
    146  CD2       15.2200   14.3670  104.7870 C.3   530  LEU530      0.0001
    147  N         18.4620   11.6590  101.9450 N.am  531  ALA531     -0.1963
    148  CA        19.2740   10.4480  102.0410 C.3   531  ALA531      0.1728
    149  C         18.1910    9.3770  102.0520 C.2   531  ALA531      0.2617
    150  O         17.0290    9.6890  102.3240 O.2   531  ALA531     -0.2715
    151  CB        20.0660   10.4160  103.3520 C.3   531  ALA531      0.0334
    152  N         18.5400    8.1280  101.7670 N.am  532  SER532     -0.1936
    153  CA        17.5220    7.0780  101.7350 C.3   532  SER532      0.2055
    154  C         16.3960    7.5830  100.8250 C.2   532  SER532      0.2643
    155  O         16.5780    8.5470  100.0830 O.2   532  SER532     -0.2714
    156  CB        16.9810    6.7920  103.1510 C.3   532  SER532      0.2130
    157  OG        16.4590    7.9520  103.7970 O.3   532  SER532     -0.2179
    158  N         15.2430    6.9340  100.8570 N.am  533  GLU533     -0.1963
    159  CA        14.1320    7.3830  100.0300 C.3   533  GLU533      0.1718
    160  C         12.9680    7.7470  100.9450 C.2   533  GLU533      0.2458
    161  O         12.7420    7.0940  101.9650 O.2   533  GLU533     -0.2730
    162  CB        13.7040    6.2850   99.0460 C.3   533  GLU533      0.0428
    163  CG        14.2530    6.4400   97.6300 C.3   533  GLU533      0.1163
    164  CD        15.7290    6.0890   97.5060 C.2   533  GLU533      0.3649
    165  OE1       16.3360    6.4410   96.4690 O.co2 533  GLU533     -0.2457
    166  OE2       16.2810    5.4490   98.4310 O.co2 533  GLU533     -0.2457
    167  N         12.2370    8.8190  100.6150 N.am  534  PRO534     -0.2727
    168  CA        11.1050    9.2180  101.4510 C.3   534  PRO534      0.1402
    169  C          9.8660    8.3770  101.1590 C.2   534  PRO534      0.2269
    170  O          8.8300    8.8840  100.7450 O.2   534  PRO534     -0.2865
    171  CB        10.9350   10.6910  101.1070 C.3   534  PRO534      0.0296
    172  CG        11.3860   10.7510   99.6950 C.3   534  PRO534      0.0237
    173  CD        12.6200    9.9090   99.7050 C.3   534  PRO534      0.0939
    174  N         10.4180   16.1560  105.3440 N.3   543  LEU543     -0.1245
    175  CA        10.7530   17.0410  104.2350 C.3   543  LEU543      0.1561
    176  C         10.1800   18.4190  104.4400 C.2   543  LEU543      0.2260
    177  O         10.7710   19.4080  104.0440 O.2   543  LEU543     -0.2867
    178  CB        10.1790   16.5240  102.9190 C.3   543  LEU543      0.0270
    179  CG        10.4810   15.1190  102.4670 C.3   543  LEU543      0.0019
    180  CD1        9.4550   14.7380  101.4370 C.3   543  LEU543      0.0001
    181  CD2       11.9030   15.0400  101.9040 C.3   543  LEU543      0.0001
@<TRIPOS>BOND
     1    36    37    1
     2    37    38    1
     3    39    38    2
     4    38    40   am
     5    22    21    2
     6    40    41    1
     7    63    62    1
     8    62    61    1
     9    49    48    1
    10    61    60    1
    11    21    20    1
    12    41    42    1
    13    44    42   am
    14    44    45    1
    15    42    43    2
    16    97    96    2
    17    13    12    2
    18    50    48    1
    19    48    45    1
    20    96    95    1
    21    86    87    1
    22    60    59    1
    23    20    23    1
    24    20    19    1
    25    87    90    1
    26    87    88    1
    27   100    99   ar
    28     4     3    2
    29    45    46    1
    30    23    24    1
    31    12    19   am
    32    12    11    1
    33    90    91    1
    34    93    91   ar
    35    59    56    1
    36    91    92   ar
    37    99   101   ar
    38    99    98    1
    39    95    94    1
    40    95    98    1
    41    88    89    2
    42     3     2    1
    43     3    10   am
    44     1     2    1
    45     8     7    2
    46    69    68    1
    47    11    10    1
    48    11    14    1
    49    46    51   am
    50    46    47    2
    51    51    52    1
    52     5     2    1
    53     5     6    1
    54    55    56    1
    55    55    53   am
    56    56    57    1
    57    15    14    1
    58    15    16    1
    59     7     6    1
    60     7     9   am
    61    64    57   am
    62    64    65    1
    63    68    65    1
    64    68    70    1
    65    57    58    2
    66    52    53    1
    67    18    17    1
    68    53    54    2
    69    65    66    1
    70    17    16    1
    71   116   115    2
    72    66    71   am
    73    66    67    2
    74    71    72    1
    75   102   103    1
    76   105   104    2
    77   106   103    1
    78   106   107    1
    79   115   114    1
    80   115   117   am
    81   109   107   am
    82   114   111    1
    83   104   103    1
    84   104   110   am
    85    76    75    1
    86    83    82    1
    87    83    84    1
    88    82    79    1
    89   107   108    2
    90   165   164   ar
    91    78    79    1
    92    78    73   am
    93   113   112    2
    94    72    75    1
    95    72    73    1
    96    28    27    2
    97    75    77    1
    98   110   111    1
    99   111   112    1
   100    79    80    1
   101    80    81    2
   102    73    74    2
   103    27    26    1
   104   164   163    1
   105   164   166   ar
   106   163   162    1
   107    85    84    1
   108    35    33    1
   109    32    33    2
   110    32    31    1
   111    30    31    1
   112    30    29    1
   113    33    34    1
   114   138   136    1
   115    26    29    1
   116    26    25    1
   117   162   159    1
   118   137   136    1
   119   172   173    1
   120   172   171    1
   121   173   167    1
   122   121   120    2
   123   136   133    1
   124   122   124    1
   125   122   123    1
   126   122   119    1
   127   159   158    1
   128   159   160    1
   129   155   154    2
   130   118   119    1
   131   133   132    1
   132   133   134    1
   133   167   160   am
   134   167   168    1
   135   120   119    1
   136   120   125   am
   137   170   169    2
   138   154   158   am
   139   154   153    1
   140   132   127   am
   141   160   161    2
   142   128   127    2
   143   171   168    1
   144   169   168    1
   145   127   126    1
   146   180   179    1
   147   134   139   am
   148   134   135    2
   149   139   140    1
   150   153   152    1
   151   153   156    1
   152   152   149   am
   153   125   126    1
   154   125   131    1
   155   181   179    1
   156   126   129    1
   157   147   148    1
   158   147   141   am
   159   148   149    1
   160   148   151    1
   161   149   150    2
   162   179   178    1
   163   140   143    1
   164   140   141    1
   165   143   144    1
   166   178   175    1
   167   141   142    2
   168   131   130    1
   169   156   157    1
   170   129   130    1
   171   144   145    1
   172   144   146    1
   173   177   176    2
   174   175   176    1
   175   175   174    1
