@<TRIPOS>MOLECULE
tmp/1f4dB00.pdb
 150 146 0 0 0
SMALL
GASTEIGER

@<TRIPOS>ATOM
      1  N         38.6450   43.9700   14.5870 N.3    57  GLU57      -0.1245
      2  CA        38.4910   42.5200   14.7970 C.3    57  GLU57       0.1567
      3  C         37.0290   42.0780   14.8780 C.2    57  GLU57       0.2260
      4  O         36.5980   41.1550   14.1490 O.2    57  GLU57      -0.2867
      5  CB        39.2510   42.0990   16.0510 C.3    57  GLU57       0.0388
      6  CG        39.5320   40.5840   16.0420 C.3    57  GLU57       0.1160
      7  CD        39.8050   40.0360   17.4190 C.2    57  GLU57       0.3649
      8  OE1       39.1590   40.5850   18.3360 O.co2  57  GLU57      -0.2457
      9  OE2       40.6130   39.0890   17.6390 O.co2  57  GLU57      -0.2457
     10  N         47.2400   42.3040   15.4810 N.3    78  ILE78      -0.1231
     11  CA        47.0990   41.2830   16.5220 C.3    78  ILE78       0.1692
     12  C         47.0840   39.8500   16.0250 C.2    78  ILE78       0.2592
     13  O         47.4170   38.9990   16.8630 O.2    78  ILE78      -0.2718
     14  CB        45.8470   41.5200   17.3900 C.3    78  ILE78       0.0266
     15  CG1       44.5430   41.1940   16.6370 C.3    78  ILE78       0.0019
     16  CG2       45.8960   42.9780   17.8250 C.3    78  ILE78       0.0020
     17  CD1       43.2880   41.4260   17.4310 C.3    78  ILE78       0.0001
     18  N         46.6570   39.5560   14.8220 N.am   79  TRP79      -0.1976
     19  CA        46.6530   38.1850   14.3390 C.3    79  TRP79       0.1640
     20  C         47.8440   37.7600   13.4950 C.2    79  TRP79       0.2290
     21  O         47.9160   36.6490   12.9710 O.2    79  TRP79      -0.2864
     22  CB        45.3520   38.0000   13.5240 C.3    79  TRP79       0.0576
     23  CG        44.1880   37.7180   14.4390 C.ar   79  TRP79       0.0006
     24  CD1       43.2350   38.6090   14.8240 C.ar   79  TRP79       0.0946
     25  CD2       43.8580   36.4870   15.0830 C.ar   79  TRP79       0.0152
     26  NE1       42.3310   38.0270   15.6550 N.ar   79  TRP79      -0.2442
     27  CE2       42.6990   36.7170   15.8410 C.ar   79  TRP79       0.0810
     28  CE3       44.4530   35.2220   15.1080 C.ar   79  TRP79       0.0012
     29  CZ2       42.0980   35.7180   16.6000 C.ar   79  TRP79       0.0191
     30  CZ3       43.8610   34.2380   15.8680 C.ar   79  TRP79       0.0001
     31  CH2       42.6800   34.4790   16.6090 C.ar   79  TRP79       0.0015
     32  N         49.8730   34.2730   13.7400 N.3    82  TRP82      -0.1241
     33  CA        49.2940   32.9530   13.5250 C.3    82  TRP82       0.1605
     34  C         49.0130   32.6990   12.0570 C.2    82  TRP82       0.2264
     35  O         48.6480   31.5830   11.7370 O.2    82  TRP82      -0.2867
     36  CB        47.9710   32.7400   14.2950 C.3    82  TRP82       0.0550
     37  CG        48.4110   32.5690   15.7310 C.ar   82  TRP82       0.0003
     38  CD1       48.8620   31.4420   16.3620 C.ar   82  TRP82       0.0946
     39  CD2       48.5750   33.6510   16.6480 C.ar   82  TRP82       0.0152
     40  NE1       49.2670   31.7600   17.6360 N.ar   82  TRP82      -0.2442
     41  CE2       49.1220   33.1160   17.8220 C.ar   82  TRP82       0.0810
     42  CE3       48.3270   35.0250   16.5730 C.ar   82  TRP82       0.0012
     43  CZ2       49.3830   33.9020   18.9430 C.ar   82  TRP82       0.0191
     44  CZ3       48.5870   35.8020   17.6890 C.ar   82  TRP82       0.0001
     45  CH2       49.1170   35.2470   18.8520 C.ar   82  TRP82       0.0015
     46  N         37.3400   31.8730   14.6330 N.3    93  TYR93      -0.1241
     47  CA        36.1000   32.5690   14.9600 C.3    93  TYR93       0.1605
     48  C         35.1110   32.9090   13.8730 C.2    93  TYR93       0.2264
     49  O         33.9520   32.4530   13.8100 O.2    93  TYR93      -0.2867
     50  CB        36.5060   33.8280   15.7610 C.3    93  TYR93       0.0534
     51  CG        37.3000   33.5360   17.0020 C.ar   93  TYR93      -0.0201
     52  CD1       36.7050   32.9630   18.1200 C.ar   93  TYR93      -0.0009
     53  CD2       38.6520   33.8520   17.0790 C.ar   93  TYR93      -0.0009
     54  CE1       37.4100   32.7930   19.2980 C.ar   93  TYR93       0.0417
     55  CE2       39.3880   33.6370   18.2460 C.ar   93  TYR93       0.0417
     56  CZ        38.7340   33.1360   19.3510 C.ar   93  TYR93       0.1957
     57  OH        39.4650   32.9000   20.5010 O.3    93  TYR93      -0.2866
     58  N         44.8680   28.4740   15.7570 N.3   142  CYS142     -0.1221
     59  CA        44.7650   28.3630   17.1870 C.3   142  CYS142      0.1808
     60  C         43.3120   27.9800   17.5580 C.2   142  CYS142      0.2601
     61  O         42.3550   28.3550   16.8840 O.2   142  CYS142     -0.2717
     62  CB        45.2150   29.4510   18.1360 C.3   142  CYS142      0.0970
     63  SG        45.1230   31.2160   18.0230 S.3   142  CYS142     -0.0800
     64  N         43.2150   27.2510   18.6530 N.am  143  ALA143     -0.1979
     65  CA        41.8740   26.8060   19.1020 C.3   143  ALA143      0.1597
     66  C         41.2190   28.0130   19.7390 C.2   143  ALA143      0.2287
     67  O         41.8960   28.7400   20.4710 O.2   143  ALA143     -0.2864
     68  CB        42.0030   25.6730   20.1140 C.3   143  ALA143      0.0319
     69  N         39.8200   30.6200   22.0520 N.3   145  SER145     -0.1202
     70  CA        39.8370   31.0050   23.4210 C.3   145  SER145      0.2020
     71  C         38.4480   31.4320   23.9120 C.2   145  SER145      0.2618
     72  O         38.0080   30.9130   24.9380 O.2   145  SER145     -0.2717
     73  CB        40.7050   32.2810   23.5690 C.3   145  SER145      0.2103
     74  OG        41.7600   31.7980   24.3270 O.3   145  SER145     -0.2182
     75  N         37.8750   32.3880   23.1700 N.am  146  HIS146     -0.1975
     76  CA        36.5470   32.8370   23.6080 C.3   146  HIS146      0.1656
     77  C         35.5780   31.9220   22.8160 C.2   146  HIS146      0.2291
     78  O         35.2180   32.1540   21.6880 O.2   146  HIS146     -0.2864
     79  CB        36.3080   34.3320   23.5240 C.3   146  HIS146      0.0771
     80  CG        36.7470   35.0180   22.2730 C.ar  146  HIS146      0.0820
     81  ND1       35.8880   35.2740   21.2040 N.ar  146  HIS146     -0.2267
     82  CD2       37.9610   35.5460   21.9280 C.ar  146  HIS146      0.1154
     83  CE1       36.5320   35.8810   20.2430 C.ar  146  HIS146      0.1986
     84  NE2       37.8010   36.0450   20.6560 N.ar  146  HIS146     -0.2212
     85  N         34.9570   31.3010   28.3680 N.3   164  GLN164     -0.1231
     86  CA        36.2990   31.5460   27.8570 C.3   164  GLN164      0.1698
     87  C         37.1610   30.4670   28.4890 C.2   164  GLN164      0.2592
     88  O         37.5240   30.5160   29.6530 O.2   164  GLN164     -0.2718
     89  CB        36.8130   32.9570   28.2400 C.3   164  GLN164      0.0381
     90  CG        38.2130   33.1930   27.6880 C.3   164  GLN164      0.0905
     91  CD        38.6140   34.6080   27.3940 C.2   164  GLN164      0.2608
     92  OE1       37.9730   35.6040   27.7210 O.2   164  GLN164     -0.2717
     93  NE2       39.7140   34.8540   26.6970 N.am  164  GLN164     -0.0878
     94  N         37.5090   29.4760   27.6750 N.am  165  ARG165     -0.1980
     95  CA        38.2310   28.3260   28.1440 C.3   165  ARG165      0.1597
     96  C         39.6480   28.6890   28.5430 C.2   165  ARG165      0.2287
     97  O         40.2670   27.9720   29.3330 O.2   165  ARG165     -0.2864
     98  CB        38.2470   27.2080   27.0930 C.3   165  ARG165      0.0334
     99  CG        38.7860   27.5860   25.7130 C.3   165  ARG165      0.0492
    100  CD        40.0190   26.8270   25.3440 C.3   165  ARG165      0.2205
    101  NE        40.6780   27.3490   24.1260 N.pl3 165  ARG165     -0.0865
    102  CZ        42.0220   27.3220   24.0700 C.cat 165  ARG165      0.5346
    103  NH1       42.7060   26.8060   25.0810 N.pl3 165  ARG165      0.1354
    104  NH2       42.5540   27.8540   23.0040 N.pl3 165  ARG165      0.1354
    105  N         44.1910   34.9310   29.2650 N.3   168  ASP168     -0.1239
    106  CA        45.4040   35.6100   29.6550 C.3   168  ASP168      0.1674
    107  C         44.8520   36.8670   30.3740 C.2   168  ASP168      0.2266
    108  O         44.4350   37.8040   29.6970 O.2   168  ASP168     -0.2867
    109  CB        46.2530   36.0030   28.4630 C.3   168  ASP168      0.1410
    110  CG        47.3220   37.0470   28.7140 C.2   168  ASP168      0.3668
    111  OD1       47.4720   37.7050   29.7720 O.co2 168  ASP168     -0.2456
    112  OD2       48.1280   37.2440   27.7800 O.co2 168  ASP168     -0.2456
    113  N         46.7660   40.4620   29.4170 N.3   171  LEU171     -0.1231
    114  CA        46.7250   40.9620   28.0440 C.3   171  LEU171      0.1693
    115  C         45.4440   40.7550   27.2750 C.2   171  LEU171      0.2592
    116  O         44.9450   41.6570   26.5470 O.2   171  LEU171     -0.2718
    117  CB        47.8910   40.2450   27.3480 C.3   171  LEU171      0.0284
    118  CG        48.9010   40.9990   26.5140 C.3   171  LEU171      0.0019
    119  CD1       49.3880   42.2770   27.2450 C.3   171  LEU171      0.0001
    120  CD2       50.0860   40.0770   26.2010 C.3   171  LEU171      0.0001
    121  N         44.8120   39.5830   27.4790 N.am  172  GLY172     -0.1957
    122  CA        43.6670   39.3310   26.5990 C.3   172  GLY172      0.1869
    123  C         42.3520   39.7720   27.2040 C.2   172  GLY172      0.2309
    124  O         41.5540   40.3400   26.4760 O.2   172  GLY172     -0.2863
    125  N         40.6080   43.1380   26.5020 N.3   175  PHE175     -0.1227
    126  CA        40.2840   43.0980   25.1080 C.3   175  PHE175      0.1736
    127  C         38.9950   42.2800   24.8990 C.2   175  PHE175      0.2595
    128  O         38.1280   42.7520   24.1490 O.2   175  PHE175     -0.2718
    129  CB        41.3920   42.4410   24.2800 C.3   175  PHE175      0.0547
    130  CG        41.4760   42.8670   22.8460 C.ar  175  PHE175     -0.0202
    131  CD1       40.8140   42.1860   21.8490 C.ar  175  PHE175     -0.0042
    132  CD2       42.3900   43.8390   22.4780 C.ar  175  PHE175     -0.0042
    133  CE1       40.9470   42.5560   20.5160 C.ar  175  PHE175     -0.0003
    134  CE2       42.5410   44.2220   21.1480 C.ar  175  PHE175     -0.0003
    135  CZ        41.7800   43.5880   20.1810 C.ar  175  PHE175     -0.0000
    136  N         38.9700   41.1110   25.5440 N.am  176  ASN176     -0.1974
    137  CA        37.8250   40.2320   25.3170 C.3   176  ASN176      0.1688
    138  C         36.5500   40.8310   25.9540 C.2   176  ASN176      0.2292
    139  O         35.4800   40.6160   25.3740 O.2   176  ASN176     -0.2864
    140  CB        38.0000   38.7720   25.7070 C.3   176  ASN176      0.1181
    141  CG        39.3360   38.0880   25.4020 C.2   176  ASN176      0.2629
    142  OD1       39.8600   37.4700   26.3830 O.2   176  ASN176     -0.2716
    143  ND2       39.9420   38.1280   24.2320 N.am  176  ASN176     -0.0877
    144  N         54.5960   39.7820   24.8240 N.3   261  VAL261     -0.1245
    145  CA        53.6320   38.8070   24.3080 C.3   261  VAL261      0.1561
    146  C         54.2710   37.4370   24.0270 C.2   261  VAL261      0.2260
    147  O         55.2460   37.2550   23.2970 O.2   261  VAL261     -0.2867
    148  CB        52.8520   39.3060   23.0900 C.3   261  VAL261      0.0252
    149  CG1       53.6610   39.4320   21.8280 C.3   261  VAL261      0.0019
    150  CG2       51.4680   38.7030   22.9880 C.3   261  VAL261      0.0019
@<TRIPOS>BOND
     1    35    34    2
     2    34    33    1
     3    21    20    2
     4    20    19    1
     5    22    19    1
     6    22    23    1
     7    33    32    1
     8    33    36    1
     9    49    48    2
    10    48    47    1
    11     4     3    2
    12    36    37    1
    13    19    18    1
    14    23    24   ar
    15    23    25   ar
    16     1     2    1
    17    46    47    1
    18     2     3    1
    19     2     5    1
    20    18    12   am
    21    24    26   ar
    22    47    50    1
    23    25    28   ar
    24    25    27   ar
    25    28    30   ar
    26    10    11    1
    27    26    27   ar
    28    37    38   ar
    29    37    39   ar
    30    58    59    1
    31    50    51    1
    32    27    29   ar
    33    30    31   ar
    34    12    11    1
    35    12    13    2
    36     6     5    1
    37     6     7    1
    38    38    40   ar
    39    11    14    1
    40    42    39   ar
    41    42    44   ar
    42    29    31   ar
    43    15    14    1
    44    15    17    1
    45    39    41   ar
    46    61    60    2
    47    51    53   ar
    48    51    52   ar
    49    53    55   ar
    50    59    60    1
    51    59    62    1
    52    14    16    1
    53     7     9   ar
    54     7     8   ar
    55    60    64   am
    56    40    41   ar
    57    44    45   ar
    58    41    43   ar
    59    63    62    1
    60    52    54   ar
    61    55    56   ar
    62    64    65    1
    63    45    43   ar
    64    65    66    1
    65    65    68    1
    66    54    56   ar
    67    56    57    1
    68    66    67    2
    69   135   133   ar
    70   135   134   ar
    71    83    84   ar
    72    83    81   ar
    73   133   131   ar
    74    84    82   ar
    75   134   132   ar
    76    81    80   ar
    77    78    77    2
    78   149   148    1
    79   131   130   ar
    80    82    80   ar
    81    69    70    1
    82    80    79    1
    83   132   130   ar
    84    77    76    1
    85   130   129    1
    86   150   148    1
    87   104   102    1
    88   148   145    1
    89    75    76    1
    90    75    71   am
    91   147   146    2
    92    70    73    1
    93    70    71    1
    94    79    76    1
    95    73    74    1
    96    71    72    2
    97   146   145    1
    98   102   101    2
    99   102   103    1
   100   101   100    1
   101   128   127    2
   102   143   141   am
   103   129   126    1
   104   145   144    1
   105   127   126    1
   106   127   136   am
   107   126   125    1
   108   137   136    1
   109   137   140    1
   110   137   138    1
   111   100    99    1
   112   139   138    2
   113   141   140    1
   114   141   142    2
   115    99    98    1
   116   120   118    1
   117   124   123    2
   118   118   119    1
   119   118   117    1
   120   116   115    2
   121   122   123    1
   122   122   121    1
   123    93    91   am
   124    98    95    1
   125   115   121   am
   126   115   114    1
   127   117   114    1
   128    91    90    1
   129    91    92    2
   130    94    95    1
   131    94    87   am
   132    90    89    1
   133   112   110   ar
   134    86    89    1
   135    86    85    1
   136    86    87    1
   137   114   113    1
   138    95    96    1
   139   109   110    1
   140   109   106    1
   141    87    88    2
   142    96    97    2
   143   110   111   ar
   144   105   106    1
   145   106   107    1
   146   108   107    2
