@<TRIPOS>MOLECULE
tmp/1f4eA00.pdb
 126 124 0 0 0
SMALL
GASTEIGER

@<TRIPOS>ATOM
      1  N         36.8210   65.5760   72.7480 N.3    53  SER53      -0.1202
      2  CA        35.7460   65.0330   73.5700 C.3    53  SER53       0.2020
      3  C         35.6100   65.7010   74.9280 C.2    53  SER53       0.2618
      4  O         34.5250   65.8640   75.5060 O.2    53  SER53      -0.2717
      5  CB        35.9690   63.5130   73.7440 C.3    53  SER53       0.2103
      6  OG        35.7210   62.9350   72.4690 O.3    53  SER53      -0.2182
      7  N         36.7520   66.0460   75.4880 N.am   54  ILE54      -0.1979
      8  CA        36.8320   66.6760   76.8050 C.3    54  ILE54       0.1595
      9  C         36.1930   68.0570   76.7860 C.2    54  ILE54       0.2287
     10  O         35.4370   68.4520   77.6810 O.2    54  ILE54      -0.2864
     11  CB        38.3250   66.7440   77.2080 C.3    54  ILE54       0.0276
     12  CG1       38.8650   65.3290   77.4270 C.3    54  ILE54       0.0022
     13  CG2       38.5210   67.6420   78.4180 C.3    54  ILE54       0.0022
     14  CD1       38.0020   64.4500   78.3200 C.3    54  ILE54       0.0001
     15  N         32.5390   67.5710   76.4430 N.3    57  GLU57      -0.1245
     16  CA        32.0120   67.0200   77.7010 C.3    57  GLU57       0.1567
     17  C         31.8300   68.1410   78.7400 C.2    57  GLU57       0.2260
     18  O         30.7970   68.2060   79.4220 O.2    57  GLU57      -0.2867
     19  CB        32.9390   65.9240   78.2620 C.3    57  GLU57       0.0388
     20  CG        32.3100   65.2510   79.5010 C.3    57  GLU57       0.1160
     21  CD        33.3100   64.4050   80.2500 C.2    57  GLU57       0.3649
     22  OE1       34.4510   64.8620   80.4220 O.co2  57  GLU57      -0.2457
     23  OE2       32.9820   63.2950   80.7060 O.co2  57  GLU57      -0.2457
     24  N         32.2440   58.9560   74.3370 N.3    78  ILE78      -0.1231
     25  CA        32.8120   58.5180   75.6040 C.3    78  ILE78       0.1692
     26  C         31.7840   58.1690   76.6810 C.2    78  ILE78       0.2592
     27  O         32.1620   57.4440   77.6230 O.2    78  ILE78      -0.2718
     28  CB        33.8020   59.5670   76.1780 C.3    78  ILE78       0.0266
     29  CG1       33.1390   60.9240   76.4160 C.3    78  ILE78       0.0019
     30  CG2       35.0340   59.7200   75.2890 C.3    78  ILE78       0.0020
     31  CD1       34.0310   61.9220   77.1520 C.3    78  ILE78       0.0001
     32  N         30.5230   58.5580   76.6080 N.am   79  TRP79      -0.1976
     33  CA        29.5450   58.1560   77.6320 C.3    79  TRP79       0.1640
     34  C         28.6070   57.0530   77.1630 C.2    79  TRP79       0.2290
     35  O         27.6870   56.6110   77.8560 O.2    79  TRP79      -0.2864
     36  CB        28.7250   59.3950   78.0210 C.3    79  TRP79       0.0576
     37  CG        29.4730   60.2130   79.0490 C.ar   79  TRP79       0.0006
     38  CD1       30.2410   61.3160   78.8700 C.ar   79  TRP79       0.0946
     39  CD2       29.4890   59.9500   80.4590 C.ar   79  TRP79       0.0152
     40  NE1       30.7390   61.7770   80.0800 N.ar   79  TRP79      -0.2442
     41  CE2       30.2780   60.9320   81.0600 C.ar   79  TRP79       0.0810
     42  CE3       28.8900   58.9680   81.2530 C.ar   79  TRP79       0.0012
     43  CZ2       30.5000   60.9800   82.4430 C.ar   79  TRP79       0.0191
     44  CZ3       29.1010   58.9950   82.6220 C.ar   79  TRP79       0.0001
     45  CH2       29.9040   60.0030   83.2000 C.ar   79  TRP79       0.0015
     46  N         27.6310   53.7900   79.1350 N.3    82  TRP82      -0.1241
     47  CA        26.8160   53.9190   80.3220 C.3    82  TRP82       0.1605
     48  C         25.3780   54.3380   80.0500 C.2    82  TRP82       0.2264
     49  O         24.6350   54.2930   81.0050 O.2    82  TRP82      -0.2867
     50  CB        27.3780   55.0530   81.2110 C.3    82  TRP82       0.0550
     51  CG        28.7850   54.6970   81.5640 C.ar   82  TRP82       0.0003
     52  CD1       29.9460   55.2140   81.0570 C.ar   82  TRP82       0.0946
     53  CD2       29.1570   53.6810   82.4930 C.ar   82  TRP82       0.0152
     54  NE1       31.0290   54.5970   81.6450 N.ar   82  TRP82      -0.2442
     55  CE2       30.5640   53.6570   82.5280 C.ar   82  TRP82       0.0810
     56  CE3       28.4360   52.8050   83.2990 C.ar   82  TRP82       0.0012
     57  CZ2       31.2640   52.7730   83.3460 C.ar   82  TRP82       0.0191
     58  CZ3       29.1220   51.9260   84.1230 C.ar   82  TRP82       0.0001
     59  CH2       30.5300   51.9140   84.1360 C.ar   82  TRP82       0.0015
     60  N         27.0570   63.9880   86.9970 N.3    93  TYR93      -0.1241
     61  CA        27.7600   65.2380   87.0700 C.3    93  TYR93       0.1605
     62  C         26.9440   66.4850   86.7470 C.2    93  TYR93       0.2264
     63  O         26.6300   67.2300   87.6600 O.2    93  TYR93      -0.2867
     64  CB        28.9510   65.2200   86.0950 C.3    93  TYR93       0.0534
     65  CG        29.9990   64.1790   86.4220 C.ar   93  TYR93      -0.0201
     66  CD1       30.8220   64.3430   87.5430 C.ar   93  TYR93      -0.0009
     67  CD2       30.1420   63.0390   85.6370 C.ar   93  TYR93      -0.0009
     68  CE1       31.7740   63.3820   87.8510 C.ar   93  TYR93       0.0417
     69  CE2       31.1030   62.0860   85.9230 C.ar   93  TYR93       0.0417
     70  CZ        31.9050   62.2710   87.0380 C.ar   93  TYR93       0.1957
     71  OH        32.8480   61.3220   87.3530 O.3    93  TYR93      -0.2866
     72  N         26.7120   55.8480   86.8830 N.3   142  LEU142     -0.1245
     73  CA        27.8690   55.5720   87.7030 C.3   142  LEU142      0.1561
     74  C         28.1310   56.7070   88.6940 C.2   142  LEU142      0.2260
     75  O         27.7690   57.8490   88.4510 O.2   142  LEU142     -0.2867
     76  CB        29.0930   55.2590   86.8640 C.3   142  LEU142      0.0270
     77  CG        29.7440   56.4750   86.2100 C.3   142  LEU142      0.0019
     78  CD1       31.0310   56.0590   85.4730 C.3   142  LEU142      0.0001
     79  CD2       28.7750   57.1330   85.2530 C.3   142  LEU142      0.0001
     80  N         33.4060   60.0410   89.8000 N.3   145  CYS145     -0.1221
     81  CA        34.7730   59.7700   90.1850 C.3   145  CYS145      0.1808
     82  C         35.3930   61.1100   90.6050 C.2   145  CYS145      0.2601
     83  O         36.0460   61.1320   91.6410 O.2   145  CYS145     -0.2717
     84  CB        35.6630   59.0850   89.1360 C.3   145  CYS145      0.0970
     85  SG        34.9590   57.4710   88.6260 S.3   145  CYS145     -0.0800
     86  N         35.1860   62.1510   89.8230 N.am  146  HIS146     -0.1975
     87  CA        35.6640   63.5110   90.1870 C.3   146  HIS146      0.1656
     88  C         34.4820   64.0690   90.9660 C.2   146  HIS146      0.2291
     89  O         33.5000   64.5350   90.3770 O.2   146  HIS146     -0.2864
     90  CB        36.1140   64.2610   88.9480 C.3   146  HIS146      0.0771
     91  CG        35.3510   64.2500   87.6710 C.ar  146  HIS146      0.0820
     92  ND1       34.5130   65.3070   87.2850 N.ar  146  HIS146     -0.2267
     93  CD2       35.2990   63.3440   86.6460 C.ar  146  HIS146      0.1154
     94  CE1       33.9810   65.0510   86.0980 C.ar  146  HIS146      0.1986
     95  NE2       34.4160   63.8620   85.7090 N.ar  146  HIS146     -0.2212
     96  N         44.5890   55.7300   81.7410 N.3   171  LEU171     -0.1231
     97  CA        43.5260   56.1590   80.8520 C.3   171  LEU171      0.1693
     98  C         42.7760   57.4230   81.2280 C.2   171  LEU171      0.2592
     99  O         42.5580   58.2480   80.3530 O.2   171  LEU171     -0.2718
    100  CB        42.5220   55.0220   80.7260 C.3   171  LEU171      0.0284
    101  CG        41.3500   55.2240   79.7850 C.3   171  LEU171      0.0019
    102  CD1       41.7230   55.7900   78.4220 C.3   171  LEU171      0.0001
    103  CD2       40.6920   53.8500   79.5960 C.3   171  LEU171      0.0001
    104  N         42.3150   57.5510   82.4800 N.am  172  GLY172     -0.1957
    105  CA        41.4920   58.7100   82.8080 C.3   172  GLY172      0.1869
    106  C         42.2120   59.9570   83.2500 C.2   172  GLY172      0.2309
    107  O         41.8550   61.0780   82.8250 O.2   172  GLY172     -0.2863
    108  N         42.9880   63.2220   81.0740 N.3   175  PHE175     -0.1227
    109  CA        41.7630   63.8980   80.7030 C.3   175  PHE175      0.1736
    110  C         41.1070   64.6320   81.8660 C.2   175  PHE175      0.2595
    111  O         40.6130   65.7350   81.6630 O.2   175  PHE175     -0.2718
    112  CB        40.8440   62.8500   80.0700 C.3   175  PHE175      0.0547
    113  CG        41.4540   62.3430   78.7770 C.ar  175  PHE175     -0.0202
    114  CD1       41.8200   63.1820   77.7580 C.ar  175  PHE175     -0.0042
    115  CD2       41.6590   60.9720   78.6260 C.ar  175  PHE175     -0.0042
    116  CE1       42.3760   62.7120   76.5880 C.ar  175  PHE175     -0.0003
    117  CE2       42.2150   60.4900   77.4430 C.ar  175  PHE175     -0.0003
    118  CZ        42.5890   61.3600   76.4320 C.ar  175  PHE175     -0.0000
    119  N         41.0660   64.0150   83.0370 N.am  176  ASN176     -0.1974
    120  CA        40.5070   64.6790   84.2310 C.3   176  ASN176      0.1688
    121  C         41.2980   65.9620   84.4920 C.2   176  ASN176      0.2292
    122  O         40.6750   66.9840   84.7820 O.2   176  ASN176     -0.2864
    123  CB        40.6260   63.7600   85.4370 C.3   176  ASN176      0.1181
    124  CG        39.8920   62.4430   85.3130 C.2   176  ASN176      0.2629
    125  OD1       40.4130   61.3620   85.5500 O.2   176  ASN176     -0.2716
    126  ND2       38.6070   62.4690   84.9400 N.am  176  ASN176     -0.0877
@<TRIPOS>BOND
     1     6     5    1
     2     1     2    1
     3     2     5    1
     4     2     3    1
     5    24    25    1
     6     3     7   am
     7     3     4    2
     8    30    28    1
     9     7     8    1
    10    25    28    1
    11    25    26    1
    12    28    29    1
    13    29    31    1
    14   118   116   ar
    15   118   117   ar
    16    15    16    1
    17   116   114   ar
    18    32    26   am
    19    32    33    1
    20    26    27    2
    21     9     8    1
    22     9    10    2
    23     8    11    1
    24    34    33    1
    25    34    35    2
    26    11    12    1
    27    11    13    1
    28    12    14    1
    29   117   115   ar
    30    33    36    1
    31    16    19    1
    32    16    17    1
    33   114   113   ar
    34    36    37    1
    35    19    20    1
    36   102   101    1
    37   115   113   ar
    38    17    18    2
    39   113   112    1
    40    38    37   ar
    41    38    40   ar
    42    37    39   ar
    43    46    47    1
    44    20    21    1
    45   103   101    1
    46   101   100    1
    47    48    47    1
    48    48    49    2
    49   112   109    1
    50    40    41   ar
    51    21    22   ar
    52    21    23   ar
    53    47    50    1
    54    99    98    2
    55    39    41   ar
    56    39    42   ar
    57   109   108    1
    58   109   110    1
    59   100    97    1
    60    97    98    1
    61    97    96    1
    62    52    51   ar
    63    52    54   ar
    64    41    43   ar
    65    50    51    1
    66    98   104   am
    67    42    44   ar
    68    51    53   ar
    69    54    55   ar
    70   111   110    2
    71   110   119   am
    72    43    45   ar
    73   104   105    1
    74    53    55   ar
    75    53    56   ar
    76    55    57   ar
    77    44    45   ar
    78   105   106    1
    79   107   106    2
    80   119   120    1
    81    56    58   ar
    82    57    59   ar
    83    58    59   ar
    84   120   121    1
    85   120   123    1
    86   121   122    2
    87   126   124   am
    88    79    77    1
    89   124   123    1
    90   124   125    2
    91    78    77    1
    92    67    69   ar
    93    67    65   ar
    94    95    94   ar
    95    95    93   ar
    96    69    70   ar
    97    64    65    1
    98    64    61    1
    99    94    92   ar
   100    77    76    1
   101    65    66   ar
   102    93    91   ar
   103    62    61    1
   104    62    63    2
   105    76    73    1
   106    72    73    1
   107    60    61    1
   108    70    71    1
   109    70    68   ar
   110    92    91   ar
   111    66    68   ar
   112    91    90    1
   113    73    74    1
   114    75    74    2
   115    85    84    1
   116    90    87    1
   117    84    81    1
   118    80    81    1
   119    86    87    1
   120    86    82   am
   121    81    82    1
   122    87    88    1
   123    89    88    2
   124    82    83    2
