@<TRIPOS>MOLECULE
tmp/1f4fA00.pdb
 223 217 0 0 0
SMALL
GASTEIGER

@<TRIPOS>ATOM
      1  N         16.1380   16.1130   49.5560 N.3    47  LYS47      -0.1245
      2  CA        15.1130   15.2340   49.0350 C.3    47  LYS47       0.1561
      3  C         15.8250   13.9190   48.6690 C.2    47  LYS47       0.2260
      4  O         16.9970   13.9990   48.2770 O.2    47  LYS47      -0.2867
      5  CB        14.3300   15.7710   47.8510 C.3    47  LYS47       0.0271
      6  CG        15.0820   15.8060   46.5290 C.3    47  LYS47       0.0035
      7  CD        14.2050   16.2790   45.3660 C.3    47  LYS47       0.0206
      8  CE        15.0070   16.1420   44.0810 C.3    47  LYS47       0.1093
      9  NZ        14.4100   16.8630   42.9250 N.3    47  LYS47      -0.1314
     10  N         17.2410   11.3400   46.4310 N.3    49  CYS49      -0.1221
     11  CA        17.4890   11.2450   44.9910 C.3    49  CYS49       0.1808
     12  C         17.9240    9.7940   44.7210 C.2    49  CYS49       0.2601
     13  O         18.5880    9.1920   45.5760 O.2    49  CYS49      -0.2717
     14  CB        18.5430   12.2160   44.4990 C.3    49  CYS49       0.0970
     15  SG        18.1910   13.9770   44.7090 S.3    49  CYS49      -0.0800
     16  N         17.5660    9.2430   43.5690 N.am   50  HIS50      -0.1975
     17  CA        18.0550    7.8810   43.2970 C.3    50  HIS50       0.1656
     18  C         19.2500    7.9520   42.3580 C.2    50  HIS50       0.2291
     19  O         19.1890    8.3560   41.2030 O.2    50  HIS50      -0.2864
     20  CB        16.9470    6.9350   42.8270 C.3    50  HIS50       0.0771
     21  CG        15.9220    6.7350   43.9110 C.ar   50  HIS50       0.0820
     22  ND1       16.1350    5.9170   44.9980 N.ar   50  HIS50      -0.2267
     23  CD2       14.6870    7.2680   44.0750 C.ar   50  HIS50       0.1154
     24  CE1       15.0730    5.9430   45.7850 C.ar   50  HIS50       0.1986
     25  NE2       14.1820    6.7560   45.2490 N.ar   50  HIS50      -0.2212
     26  N         19.4440    5.7770   38.6950 N.3    53  SER53      -0.1217
     27  CA        19.1350    6.3440   37.3920 C.3    53  SER53       0.1889
     28  C         20.2800    7.1890   36.8260 C.2    53  SER53       0.2288
     29  O         20.5080    7.1950   35.6180 O.2    53  SER53      -0.2866
     30  CB        17.8700    7.2010   37.4110 C.3    53  SER53       0.2089
     31  OG        16.6900    6.4450   37.2720 O.3    53  SER53      -0.2183
     32  N         22.3190    6.3780   33.3380 N.3    57  GLU57      -0.1245
     33  CA        22.3720    7.3700   32.2670 C.3    57  GLU57       0.1567
     34  C         23.8050    7.6710   31.8430 C.2    57  GLU57       0.2260
     35  O         24.0870    7.8130   30.6480 O.2    57  GLU57      -0.2867
     36  CB        21.6640    8.6680   32.6670 C.3    57  GLU57       0.0388
     37  CG        21.5660    9.6420   31.5020 C.3    57  GLU57       0.1160
     38  CD        21.1840   11.0510   31.9260 C.2    57  GLU57       0.3649
     39  OE1       21.6580   11.4860   32.9990 O.co2  57  GLU57      -0.2457
     40  OE2       20.4300   11.6700   31.1450 O.co2  57  GLU57      -0.2457
     41  N         14.7540    0.0430   33.9170 N.3    75  ASN75      -0.1225
     42  CA        13.7410    0.8290   34.5820 C.3    75  ASN75       0.1785
     43  C         14.1300    2.2720   34.8460 C.2    75  ASN75       0.2597
     44  O         13.7550    2.8830   35.8460 O.2    75  ASN75      -0.2718
     45  CB        13.2870    0.0800   35.8550 C.3    75  ASN75       0.1169
     46  CG        12.5830   -1.2120   35.4490 C.2    75  ASN75       0.2627
     47  OD1       11.4170   -1.2070   35.0400 O.2    75  ASN75      -0.2716
     48  ND2       13.2840   -2.3400   35.5150 N.am   75  ASN75      -0.0877
     49  N         14.8620    2.8890   33.9210 N.am   76  VAL76      -0.1966
     50  CA        15.1790    4.3190   33.9320 C.3    76  VAL76       0.1727
     51  C         14.3230    4.9140   32.8160 C.2    76  VAL76       0.2617
     52  O         14.4890    4.6450   31.6320 O.2    76  VAL76      -0.2715
     53  CB        16.6700    4.6030   33.7950 C.3    76  VAL76       0.0290
     54  CG1       16.9730    6.0900   33.7280 C.3    76  VAL76       0.0023
     55  CG2       17.4020    3.9820   34.9930 C.3    76  VAL76       0.0023
     56  N         13.3390    5.7150   33.2230 N.am   77  THR77      -0.1937
     57  CA        12.3650    6.3020   32.3220 C.3    77  THR77       0.2028
     58  C         12.4460    7.7800   32.0460 C.2    77  THR77       0.2642
     59  O         11.6420    8.3510   31.2960 O.2    77  THR77      -0.2714
     60  CB        10.9730    6.0000   32.9630 C.3    77  THR77       0.1808
     61  OG1       10.9540    6.5900   34.2760 O.3    77  THR77      -0.2208
     62  CG2       10.7560    4.5070   33.0850 C.3    77  THR77       0.0379
     63  N         13.4620    8.4580   32.5580 N.am   78  ILE78      -0.1963
     64  CA        13.6370    9.8850   32.3860 C.3    78  ILE78       0.1727
     65  C         13.7280   10.3430   30.9410 C.2    78  ILE78       0.2616
     66  O         13.5200   11.5350   30.7180 O.2    78  ILE78      -0.2715
     67  CB        14.8710   10.4250   33.1270 C.3    78  ILE78       0.0290
     68  CG1       16.1720    9.7760   32.6370 C.3    78  ILE78       0.0022
     69  CG2       14.7420   10.1930   34.6200 C.3    78  ILE78       0.0023
     70  CD1       17.4080   10.4710   33.1820 C.3    78  ILE78       0.0001
     71  N         14.1330    9.5340   29.9800 N.am   79  TRP79      -0.1974
     72  CA        14.2210    9.9570   28.5950 C.3    79  TRP79       0.1640
     73  C         13.0400    9.4960   27.7450 C.2    79  TRP79       0.2290
     74  O         12.9450    9.8850   26.5710 O.2    79  TRP79      -0.2864
     75  CB        15.5200    9.3850   27.9980 C.3    79  TRP79       0.0576
     76  CG        16.7240   10.2250   28.3060 C.ar   79  TRP79       0.0006
     77  CD1       17.6260   10.0560   29.3050 C.ar   79  TRP79       0.0946
     78  CD2       17.1200   11.4180   27.6000 C.ar   79  TRP79       0.0152
     79  NE1       18.5690   11.0530   29.2590 N.ar   79  TRP79      -0.2442
     80  CE2       18.2920   11.8950   28.2150 C.ar   79  TRP79       0.0810
     81  CE3       16.5900   12.1250   26.5190 C.ar   79  TRP79       0.0012
     82  CZ2       18.9630   13.0260   27.7590 C.ar   79  TRP79       0.0191
     83  CZ3       17.2510   13.2500   26.0680 C.ar   79  TRP79       0.0001
     84  CH2       18.4250   13.7060   26.6950 C.ar   79  TRP79       0.0015
     85  N         10.7870   11.7560   25.2470 N.3    82  TRP82      -0.1241
     86  CA        11.4640   12.3680   24.1270 C.3    82  TRP82       0.1605
     87  C         11.7150   11.3750   23.0020 C.2    82  TRP82       0.2264
     88  O         12.0410   11.7790   21.8860 O.2    82  TRP82      -0.2867
     89  CB        12.8050   12.9460   24.6220 C.3    82  TRP82       0.0550
     90  CG        12.6000   13.7770   25.8560 C.ar   82  TRP82       0.0003
     91  CD1       12.9060   13.4710   27.1480 C.ar   82  TRP82       0.0946
     92  CD2       11.9820   15.0670   25.8710 C.ar   82  TRP82       0.0152
     93  NE1       12.5330   14.5030   27.9640 N.ar   82  TRP82      -0.2442
     94  CE2       11.9630   15.5010   27.2050 C.ar   82  TRP82       0.0810
     95  CE3       11.4590   15.8930   24.8720 C.ar   82  TRP82       0.0012
     96  CZ2       11.4300   16.7320   27.5750 C.ar   82  TRP82       0.0191
     97  CZ3       10.9240   17.1110   25.2440 C.ar   82  TRP82       0.0001
     98  CH2       10.9250   17.5250   26.5860 C.ar   82  TRP82       0.0015
     99  N         23.5660   13.9060   23.4070 N.3    93  TYR93      -0.1241
    100  CA        24.7470   13.7710   24.2470 C.3    93  TYR93       0.1605
    101  C         25.7580   12.7090   23.8640 C.2    93  TYR93       0.2264
    102  O         26.8240   12.9920   23.3210 O.2    93  TYR93      -0.2867
    103  CB        24.3220   13.5000   25.7030 C.3    93  TYR93       0.0534
    104  CG        23.5130   14.6200   26.3250 C.ar   93  TYR93      -0.0201
    105  CD1       24.1570   15.7850   26.7370 C.ar   93  TYR93      -0.0009
    106  CD2       22.1420   14.5170   26.5130 C.ar   93  TYR93      -0.0009
    107  CE1       23.4320   16.8210   27.2820 C.ar   93  TYR93       0.0417
    108  CE2       21.4100   15.5410   27.0830 C.ar   93  TYR93       0.0417
    109  CZ        22.0680   16.6930   27.4680 C.ar   93  TYR93       0.1957
    110  OH        21.3790   17.7270   28.0600 O.3    93  TYR93      -0.2866
    111  N         16.0750   16.6960   21.7800 N.3   142  LEU142     -0.1231
    112  CA        16.2840   17.8220   22.6510 C.3   142  LEU142      0.1693
    113  C         17.7360   18.3060   22.4450 C.2   142  LEU142      0.2591
    114  O         18.6220   17.4500   22.3630 O.2   142  LEU142     -0.2718
    115  CB        16.1890   17.5090   24.1410 C.3   142  LEU142      0.0284
    116  CG        14.8370   17.1140   24.7290 C.3   142  LEU142      0.0019
    117  CD1       15.0300   16.6980   26.1780 C.3   142  LEU142      0.0001
    118  CD2       13.8940   18.3080   24.6040 C.3   142  LEU142      0.0001
    119  N         17.9260   19.6110   22.4150 N.am  143  ALA143     -0.1980
    120  CA        19.2800   20.1860   22.2970 C.3   143  ALA143      0.1597
    121  C         19.9360   20.0280   23.6600 C.2   143  ALA143      0.2287
    122  O         19.2070   20.0610   24.6530 O.2   143  ALA143     -0.2864
    123  CB        19.1590   21.6530   21.9300 C.3   143  ALA143      0.0319
    124  N         21.2320   20.2940   27.2340 N.3   145  CYS145     -0.1221
    125  CA        21.1360   21.2150   28.3570 C.3   145  CYS145      0.1808
    126  C         22.5150   21.3880   28.9980 C.2   145  CYS145      0.2601
    127  O         22.9830   22.5200   29.1520 O.2   145  CYS145     -0.2717
    128  CB        20.0980   20.7600   29.3790 C.3   145  CYS145      0.0970
    129  SG        18.3890   20.8660   28.7900 S.3   145  CYS145     -0.0800
    130  N         23.1730   20.2870   29.3460 N.am  146  HIS146     -0.1975
    131  CA        24.5290   20.3050   29.8940 C.3   146  HIS146      0.1656
    132  C         25.4280   20.1850   28.6500 C.2   146  HIS146      0.2291
    133  O         25.6560   19.1110   28.1010 O.2   146  HIS146     -0.2864
    134  CB        24.8210   19.2370   30.9250 C.3   146  HIS146      0.0771
    135  CG        24.2730   17.8650   30.7060 C.ar  146  HIS146      0.0820
    136  ND1       25.0090   16.8120   30.2250 N.ar  146  HIS146     -0.2267
    137  CD2       23.0190   17.3770   30.9380 C.ar  146  HIS146      0.1154
    138  CE1       24.2420   15.7290   30.1700 C.ar  146  HIS146      0.1986
    139  NE2       23.0180   16.0500   30.5740 N.ar  146  HIS146     -0.2212
    140  N         26.1180   24.8120   31.7200 N.3   164  GLN164     -0.1245
    141  CA        24.7630   24.3160   31.5010 C.3   164  GLN164      0.1566
    142  C         23.9170   25.4700   30.9780 C.2   164  GLN164      0.2260
    143  O         23.4820   26.3520   31.7130 O.2   164  GLN164     -0.2867
    144  CB        24.1970   23.6800   32.7790 C.3   164  GLN164      0.0367
    145  CG        22.8570   22.9890   32.5950 C.3   164  GLN164      0.0905
    146  CD        22.4520   22.0150   33.6750 C.2   164  GLN164      0.2608
    147  OE1       23.2470   21.6190   34.5250 O.2   164  GLN164     -0.2717
    148  NE2       21.1930   21.5850   33.6400 N.am  164  GLN164     -0.0878
    149  N         16.8850   23.1660   34.6810 N.3   168  ASP168     -0.1239
    150  CA        15.6860   22.9090   35.4470 C.3   168  ASP168      0.1674
    151  C         16.2280   22.6810   36.8670 C.2   168  ASP168      0.2266
    152  O         16.7250   21.5880   37.1820 O.2   168  ASP168     -0.2867
    153  CB        14.9760   21.6820   34.8960 C.3   168  ASP168      0.1410
    154  CG        13.7320   21.3230   35.6860 C.2   168  ASP168      0.3668
    155  OD1       13.5320   21.8300   36.7910 O.co2 168  ASP168     -0.2456
    156  OD2       12.9210   20.5130   35.1940 O.co2 168  ASP168     -0.2456
    157  N         14.3090   19.7110   39.1050 N.3   171  LEU171     -0.1231
    158  CA        14.2850   18.3110   38.6610 C.3   171  LEU171      0.1693
    159  C         15.5620   17.8320   37.9920 C.2   171  LEU171      0.2592
    160  O         16.0720   16.7240   38.1800 O.2   171  LEU171     -0.2718
    161  CB        13.0670   18.1840   37.7360 C.3   171  LEU171      0.0284
    162  CG        12.0900   17.0260   37.8460 C.3   171  LEU171      0.0019
    163  CD1       11.6260   16.7570   39.2680 C.3   171  LEU171      0.0001
    164  CD2       10.8860   17.2830   36.9370 C.3   171  LEU171      0.0001
    165  N         16.1110   18.6650   37.1320 N.am  172  GLY172     -0.1957
    166  CA        17.3190   18.3750   36.3860 C.3   172  GLY172      0.1869
    167  C         18.5960   18.4980   37.1930 C.2   172  GLY172      0.2309
    168  O         19.3430   17.5320   37.3610 O.2   172  GLY172     -0.2863
    169  N         19.8630   18.2900   40.3630 N.3   174  PRO174     -0.2102
    170  CA        20.4290   17.2910   41.2720 C.3   174  PRO174      0.1504
    171  C         21.0680   16.1550   40.4880 C.2   174  PRO174      0.2576
    172  O         22.1480   15.6720   40.8360 O.2   174  PRO174     -0.2718
    173  CB        19.2560   16.8850   42.1430 C.3   174  PRO174      0.0282
    174  CG        18.3400   18.0850   42.1020 C.3   174  PRO174      0.0208
    175  CD        18.4430   18.5420   40.6620 C.3   174  PRO174      0.0893
    176  N         20.4390   15.7380   39.4030 N.am  175  PHE175     -0.1963
    177  CA        20.8870   14.6920   38.5200 C.3   175  PHE175      0.1771
    178  C         22.1510   15.1260   37.7750 C.2   175  PHE175      0.2619
    179  O         23.1030   14.3710   37.6910 O.2   175  PHE175     -0.2715
    180  CB        19.8440   14.3240   37.4670 C.3   175  PHE175      0.0574
    181  CG        18.9910   13.1090   37.6400 C.ar  175  PHE175     -0.0200
    182  CD1       19.0880   12.0600   36.7430 C.ar  175  PHE175     -0.0042
    183  CD2       18.0900   12.9780   38.6860 C.ar  175  PHE175     -0.0042
    184  CE1       18.3270   10.9200   36.8790 C.ar  175  PHE175     -0.0003
    185  CE2       17.3180   11.8390   38.8350 C.ar  175  PHE175     -0.0003
    186  CZ        17.4270   10.8000   37.9210 C.ar  175  PHE175     -0.0000
    187  N         22.1360   16.3350   37.2250 N.am  176  ASN176     -0.1972
    188  CA        23.2870   16.8210   36.4730 C.3   176  ASN176      0.1688
    189  C         24.5000   16.9620   37.3830 C.2   176  ASN176      0.2292
    190  O         25.6080   16.6230   36.9570 O.2   176  ASN176     -0.2864
    191  CB        22.9600   18.1240   35.7770 C.3   176  ASN176      0.1181
    192  CG        21.7030   18.1460   34.9410 C.2   176  ASN176      0.2629
    193  OD1       21.0120   19.1670   34.9700 O.2   176  ASN176     -0.2716
    194  ND2       21.3900   17.0880   34.2060 N.am  176  ASN176     -0.0877
    195  N         10.5440   14.0730   47.0840 N.3   257  ILE257     -0.1231
    196  CA         9.5430   15.0900   46.7640 C.3   257  ILE257      0.1692
    197  C          9.1780   14.9030   45.2940 C.2   257  ILE257      0.2592
    198  O         10.0470   15.1370   44.4410 O.2   257  ILE257     -0.2718
    199  CB        10.0700   16.5150   47.0240 C.3   257  ILE257      0.0266
    200  CG1       10.3770   16.8350   48.4870 C.3   257  ILE257      0.0019
    201  CG2        9.0650   17.5460   46.5100 C.3   257  ILE257      0.0020
    202  CD1       11.1060   18.1630   48.6860 C.3   257  ILE257      0.0001
    203  N          8.0170   14.3460   44.9590 N.am  258  LYS258     -0.1966
    204  CA         7.7130   14.1450   43.5310 C.3   258  LYS258      0.1728
    205  C          7.3370   15.4760   42.8800 C.2   258  LYS258      0.2616
    206  O          6.8070   16.3660   43.5350 O.2   258  LYS258     -0.2715
    207  CB         6.5840   13.1560   43.2800 C.3   258  LYS258      0.0311
    208  CG         6.5300   11.9660   44.2220 C.3   258  LYS258      0.0038
    209  CD         5.2940   11.1200   43.9810 C.3   258  LYS258      0.0206
    210  CE         5.1640    9.9870   44.9950 C.3   258  LYS258      0.1093
    211  NZ         3.8100    9.3540   44.9190 N.3   258  LYS258     -0.1314
    212  N          7.6240   15.6320   41.5930 N.am  259  ALA259     -0.1977
    213  CA         7.2070   16.8510   40.8970 C.3   259  ALA259      0.1597
    214  C          7.0070   16.5390   39.4160 C.2   259  ALA259      0.2287
    215  O          7.6030   15.6150   38.8780 O.2   259  ALA259     -0.2864
    216  CB         8.1230   18.0320   41.0780 C.3   259  ALA259      0.0319
    217  N          7.2260   16.8370   35.4480 N.3   261  VAL261     -0.1245
    218  CA         8.2030   17.2970   34.4580 C.3   261  VAL261      0.1561
    219  C          7.5320   18.3120   33.5320 C.2   261  VAL261      0.2260
    220  O          7.4260   19.4870   33.9150 O.2   261  VAL261     -0.2867
    221  CB         8.8620   16.1600   33.6750 C.3   261  VAL261      0.0252
    222  CG1        7.9230   15.5080   32.6760 C.3   261  VAL261      0.0019
    223  CG2       10.1190   16.6340   32.9620 C.3   261  VAL261      0.0019
@<TRIPOS>BOND
     1   111   112    1
     2    88    87    2
     3   123   120    1
     4   120   119    1
     5   120   121    1
     6   114   113    2
     7   119   113   am
     8   113   112    1
     9   112   115    1
    10    87    86    1
    11   102   101    2
    12    99   100    1
    13   121   122    2
    14   101   100    1
    15    86    89    1
    16    86    85    1
    17   115   116    1
    18   100   103    1
    19   118   116    1
    20    89    90    1
    21   116   117    1
    22    95    97   ar
    23    95    92   ar
    24    97    98   ar
    25   103   104    1
    26    90    92   ar
    27    90    91   ar
    28    92    94   ar
    29    83    81   ar
    30    83    84   ar
    31   104   106   ar
    32   104   105   ar
    33   106   108   ar
    34    81    78   ar
    35    74    73    2
    36    98    96   ar
    37    84    82   ar
    38   105   107   ar
    39   108   109   ar
    40    91    93   ar
    41    94    96   ar
    42    94    93   ar
    43   124   125    1
    44   107   109   ar
    45   109   110    1
    46    78    80   ar
    47    78    76   ar
    48    73    72    1
    49    82    80   ar
    50    75    76    1
    51    75    72    1
    52   133   132    2
    53    80    79   ar
    54    76    77   ar
    55   125   126    1
    56   125   128    1
    57    72    71    1
    58   132   131    1
    59   129   128    1
    60   126   127    2
    61   126   130   am
    62    79    77   ar
    63   130   131    1
    64   131   134    1
    65    71    65   am
    66   138   136   ar
    67   138   139   ar
    68   136   135   ar
    69   139   137   ar
    70    35    34    2
    71   135   134    1
    72   135   137   ar
    73    66    65    2
    74    65    64    1
    75   142   141    1
    76   142   143    2
    77    40    38   ar
    78    59    58    2
    79   141   140    1
    80   141   144    1
    81    37    38    1
    82    37    36    1
    83    52    51    2
    84    34    33    1
    85    38    39   ar
    86    58    57    1
    87    58    63   am
    88    33    36    1
    89    33    32    1
    90    57    60    1
    91    57    56    1
    92    64    63    1
    93    64    67    1
    94   145   144    1
    95   145   146    1
    96    68    67    1
    97    68    70    1
    98   222   221    1
    99    51    56   am
   100    51    50    1
   101   223   221    1
   102    60    62    1
   103    60    61    1
   104    67    69    1
   105   219   220    2
   106   219   218    1
   107   148   146   am
   108   146   147    2
   109   221   218    1
   110    54    53    1
   111    53    50    1
   112    53    55    1
   113    41    42    1
   114    49    50    1
   115    49    43   am
   116   194   192   am
   117   218   217    1
   118    42    43    1
   119    42    45    1
   120   149   150    1
   121    43    44    2
   122   153   150    1
   123   153   154    1
   124   192   193    2
   125   192   191    1
   126    47    46    2
   127   156   154   ar
   128   150   151    1
   129    46    48   am
   130    46    45    1
   131    29    28    2
   132   154   155   ar
   133   191   188    1
   134   166   165    1
   135   166   167    1
   136   188   187    1
   137   188   189    1
   138   182   184   ar
   139   182   181   ar
   140    28    27    1
   141   151   152    2
   142   184   186   ar
   143   164   162    1
   144   190   189    2
   145   165   159   am
   146   167   168    2
   147   187   178   am
   148    31    30    1
   149    27    30    1
   150    27    26    1
   151   180   181    1
   152   180   177    1
   153   181   183   ar
   154   179   178    2
   155   161   162    1
   156   161   158    1
   157   178   177    1
   158   162   163    1
   159   186   185   ar
   160   159   160    2
   161   159   158    1
   162   177   176    1
   163   158   157    1
   164   183   185   ar
   165   215   214    2
   166   176   171   am
   167   214   213    1
   168   169   175    1
   169   169   170    1
   170   171   172    2
   171   171   170    1
   172   175   174    1
   173   213   216    1
   174   213   212    1
   175    19    18    2
   176   170   173    1
   177   212   205   am
   178   174   173    1
   179    18    17    1
   180    20    17    1
   181    20    21    1
   182   205   204    1
   183   205   206    2
   184     9     8    1
   185   207   204    1
   186   207   208    1
   187    17    16    1
   188   204   203    1
   189    16    12   am
   190    21    23   ar
   191    21    22   ar
   192   209   208    1
   193   209   210    1
   194    23    25   ar
   195     8     7    1
   196   198   197    2
   197    14    15    1
   198    14    11    1
   199    12    11    1
   200    12    13    2
   201   211   210    1
   202   203   197   am
   203    11    10    1
   204    22    24   ar
   205    25    24   ar
   206   197   196    1
   207     7     6    1
   208   201   199    1
   209     6     5    1
   210   196   199    1
   211   196   195    1
   212   199   200    1
   213     5     2    1
   214     4     3    2
   215   200   202    1
   216     3     2    1
   217     2     1    1
