@<TRIPOS>MOLECULE
tmp/1f4fB00.pdb
 181 175 0 0 0
SMALL
GASTEIGER

@<TRIPOS>ATOM
      1  N         44.5170   50.8730   32.7110 N.3    47  LYS47      -0.1245
      2  CA        45.4790   50.9700   31.6490 C.3    47  LYS47       0.1561
      3  C         44.6790   51.4330   30.4210 C.2    47  LYS47       0.2260
      4  O         43.5360   50.9770   30.2720 O.2    47  LYS47      -0.2867
      5  CB        46.2920   49.7380   31.3270 C.3    47  LYS47       0.0271
      6  CG        45.5290   48.6430   30.6000 C.3    47  LYS47       0.0035
      7  CD        46.3930   47.4850   30.1550 C.3    47  LYS47       0.0206
      8  CE        45.6100   46.5480   29.2300 C.3    47  LYS47       0.1093
      9  NZ        46.2970   45.2270   29.0740 N.3    47  LYS47      -0.1314
     10  N         43.1450   50.1440   23.7020 N.3    50  HIS50      -0.1241
     11  CA        42.7980   50.7700   22.4200 C.3    50  HIS50       0.1621
     12  C         41.6250   50.0360   21.7860 C.2    50  HIS50       0.2264
     13  O         41.6730   48.9260   21.2570 O.2    50  HIS50      -0.2867
     14  CB        44.0120   51.0030   21.5260 C.3    50  HIS50       0.0745
     15  CG        44.8400   52.1790   21.9900 C.ar   50  HIS50       0.0817
     16  ND1       44.4540   53.4900   21.8360 N.ar   50  HIS50      -0.2268
     17  CD2       46.0240   52.2210   22.6510 C.ar   50  HIS50       0.1154
     18  CE1       45.3580   54.2930   22.3640 C.ar   50  HIS50       0.1986
     19  NE2       46.3270   53.5460   22.8600 N.ar   50  HIS50      -0.2212
     20  N         41.3520   48.5710   17.8290 N.3    53  SER53      -0.1217
     21  CA        41.6250   47.1910   17.4480 C.3    53  SER53       0.1889
     22  C         40.4930   46.2520   17.8740 C.2    53  SER53       0.2288
     23  O         40.1450   45.3380   17.1440 O.2    53  SER53      -0.2866
     24  CB        42.9630   46.6960   17.9920 C.3    53  SER53       0.2089
     25  OG        44.0340   47.3030   17.2740 O.3    53  SER53      -0.2183
     26  N         38.3880   44.1050   15.0530 N.3    57  GLU57      -0.1245
     27  CA        38.3790   42.6400   15.1640 C.3    57  GLU57       0.1567
     28  C         36.9470   42.1090   15.1930 C.2    57  GLU57       0.2260
     29  O         36.5300   41.2330   14.4190 O.2    57  GLU57      -0.2867
     30  CB        39.2000   42.1890   16.3730 C.3    57  GLU57       0.0388
     31  CG        39.3940   40.6830   16.4080 C.3    57  GLU57       0.1160
     32  CD        39.7070   40.0820   17.7540 C.2    57  GLU57       0.3649
     33  OE1       39.2970   40.5910   18.8070 O.co2  57  GLU57      -0.2457
     34  OE2       40.3690   39.0170   17.7600 O.co2  57  GLU57      -0.2457
     35  N         47.2330   42.3490   16.0010 N.3    78  ILE78      -0.1231
     36  CA        47.0850   41.2930   16.9960 C.3    78  ILE78       0.1692
     37  C         46.9970   39.8830   16.4370 C.2    78  ILE78       0.2592
     38  O         47.3540   38.9900   17.2190 O.2    78  ILE78      -0.2718
     39  CB        45.8680   41.5660   17.8910 C.3    78  ILE78       0.0266
     40  CG1       44.5520   41.3840   17.1270 C.3    78  ILE78       0.0019
     41  CG2       45.9700   42.9930   18.4120 C.3    78  ILE78       0.0020
     42  CD1       43.3240   41.5790   17.9890 C.3    78  ILE78       0.0001
     43  N         46.6250   39.6400   15.1870 N.am   79  TRP79      -0.1976
     44  CA        46.5730   38.2870   14.6480 C.3    79  TRP79       0.1640
     45  C         47.7430   37.8880   13.7600 C.2    79  TRP79       0.2290
     46  O         47.8490   36.7420   13.3050 O.2    79  TRP79      -0.2864
     47  CB        45.2750   38.0760   13.8350 C.3    79  TRP79       0.0576
     48  CG        44.0900   37.7940   14.7090 C.ar   79  TRP79       0.0006
     49  CD1       43.1700   38.6980   15.1660 C.ar   79  TRP79       0.0946
     50  CD2       43.7110   36.5270   15.2590 C.ar   79  TRP79       0.0152
     51  NE1       42.2440   38.0720   15.9590 N.ar   79  TRP79      -0.2442
     52  CE2       42.5420   36.7330   16.0150 C.ar   79  TRP79       0.0810
     53  CE3       44.2360   35.2380   15.1730 C.ar   79  TRP79       0.0012
     54  CZ2       41.8910   35.6970   16.6870 C.ar   79  TRP79       0.0191
     55  CZ3       43.5860   34.2060   15.8320 C.ar   79  TRP79       0.0001
     56  CH2       42.4250   34.4400   16.5840 C.ar   79  TRP79       0.0015
     57  N         49.8980   34.3810   14.0250 N.3    82  TRP82      -0.1241
     58  CA        49.2280   33.1210   13.7490 C.3    82  TRP82       0.1605
     59  C         48.9680   32.9200   12.2650 C.2    82  TRP82       0.2264
     60  O         48.6550   31.8100   11.8520 O.2    82  TRP82      -0.2867
     61  CB        47.8700   33.0830   14.4750 C.3    82  TRP82       0.0550
     62  CG        48.0660   33.5140   15.8970 C.ar   82  TRP82       0.0003
     63  CD1       47.7330   34.7150   16.4490 C.ar   82  TRP82       0.0946
     64  CD2       48.7120   32.7540   16.9200 C.ar   82  TRP82       0.0152
     65  NE1       48.1130   34.7410   17.7730 N.ar   82  TRP82      -0.2442
     66  CE2       48.7130   33.5470   18.0790 C.ar   82  TRP82       0.0810
     67  CE3       49.2730   31.4750   16.9650 C.ar   82  TRP82       0.0012
     68  CZ2       49.2500   33.1010   19.2830 C.ar   82  TRP82       0.0191
     69  CZ3       49.8150   31.0400   18.1630 C.ar   82  TRP82       0.0001
     70  CH2       49.7960   31.8470   19.3080 C.ar   82  TRP82       0.0015
     71  N         37.2180   31.7370   14.7510 N.3    93  TYR93      -0.1241
     72  CA        36.0370   32.4830   15.1290 C.3    93  TYR93       0.1605
     73  C         35.0690   32.8490   14.0210 C.2    93  TYR93       0.2264
     74  O         33.9730   32.2950   13.9000 O.2    93  TYR93      -0.2867
     75  CB        36.4210   33.7880   15.8520 C.3    93  TYR93       0.0534
     76  CG        37.2670   33.6090   17.0960 C.ar   93  TYR93      -0.0201
     77  CD1       36.6640   33.1240   18.2620 C.ar   93  TYR93      -0.0009
     78  CD2       38.6200   33.8880   17.1170 C.ar   93  TYR93      -0.0009
     79  CE1       37.3960   32.9430   19.4140 C.ar   93  TYR93       0.0417
     80  CE2       39.3570   33.7070   18.2730 C.ar   93  TYR93       0.0417
     81  CZ        38.7370   33.2610   19.4220 C.ar   93  TYR93       0.1957
     82  OH        39.4650   33.0990   20.5810 O.3    93  TYR93      -0.2866
     83  N         44.6950   28.7030   15.8620 N.3   142  LEU142     -0.1231
     84  CA        44.5070   28.6490   17.2940 C.3   142  LEU142      0.1693
     85  C         43.0870   28.1430   17.6040 C.2   142  LEU142      0.2591
     86  O         42.1620   28.6600   16.9880 O.2   142  LEU142     -0.2718
     87  CB        44.5960   30.0310   17.9500 C.3   142  LEU142      0.0284
     88  CG        45.9410   30.6900   18.1850 C.3   142  LEU142      0.0019
     89  CD1       45.7480   32.1190   18.6600 C.3   142  LEU142      0.0001
     90  CD2       46.7400   29.9030   19.2200 C.3   142  LEU142      0.0001
     91  N         42.9410   27.2330   18.5490 N.am  143  ALA143     -0.1980
     92  CA        41.5980   26.8420   18.9910 C.3   143  ALA143      0.1597
     93  C         40.9760   28.0660   19.6560 C.2   143  ALA143      0.2287
     94  O         41.6900   28.8590   20.2870 O.2   143  ALA143     -0.2864
     95  CB        41.7090   25.7100   20.0000 C.3   143  ALA143      0.0319
     96  N         39.6050   30.7170   22.0990 N.3   145  CYS145     -0.1221
     97  CA        39.6990   30.9860   23.5260 C.3   145  CYS145      0.1808
     98  C         38.3340   31.4010   24.0860 C.2   145  CYS145      0.2601
     99  O         37.8540   30.8430   25.0820 O.2   145  CYS145     -0.2717
    100  CB        40.7140   32.0880   23.8560 C.3   145  CYS145      0.0970
    101  SG        42.4250   31.5660   23.5750 S.3   145  CYS145     -0.0800
    102  N         37.7340   32.4090   23.4420 N.am  146  HIS146     -0.1975
    103  CA        36.3940   32.8520   23.8330 C.3   146  HIS146      0.1656
    104  C         35.4770   32.0040   22.9200 C.2   146  HIS146      0.2291
    105  O         35.2830   32.2970   21.7490 O.2   146  HIS146     -0.2864
    106  CB        36.1080   34.3300   23.6700 C.3   146  HIS146      0.0771
    107  CG        36.6100   35.0460   22.4640 C.ar  146  HIS146      0.0820
    108  ND1       35.8300   35.3430   21.3610 N.ar  146  HIS146     -0.2267
    109  CD2       37.8580   35.5400   22.2140 C.ar  146  HIS146      0.1154
    110  CE1       36.5750   35.9940   20.4780 C.ar  146  HIS146      0.1986
    111  NE2       37.8000   36.1060   20.9660 N.ar  146  HIS146     -0.2212
    112  N         34.7290   31.3870   28.4730 N.3   164  GLN164     -0.1245
    113  CA        36.0890   31.5420   27.9470 C.3   164  GLN164      0.1566
    114  C         36.9650   30.4350   28.5230 C.2   164  GLN164      0.2260
    115  O         37.4010   30.4920   29.6730 O.2   164  GLN164     -0.2867
    116  CB        36.6470   32.9320   28.2880 C.3   164  GLN164      0.0367
    117  CG        37.9990   33.2220   27.6660 C.3   164  GLN164      0.0905
    118  CD        38.3580   34.6810   27.5220 C.2   164  GLN164      0.2608
    119  OE1       37.5850   35.5850   27.8590 O.2   164  GLN164     -0.2717
    120  NE2       39.5560   34.9640   27.0160 N.am  164  GLN164     -0.0878
    121  N         44.0330   34.8230   29.0180 N.3   168  ASP168     -0.1239
    122  CA        45.2400   35.5790   29.3690 C.3   168  ASP168      0.1674
    123  C         44.6940   36.8350   30.0550 C.2   168  ASP168      0.2266
    124  O         44.1730   37.7310   29.3860 O.2   168  ASP168     -0.2867
    125  CB        46.0290   35.8980   28.1250 C.3   168  ASP168      0.1410
    126  CG        47.1710   36.8720   28.2430 C.2   168  ASP168      0.3668
    127  OD1       47.3070   37.6100   29.2490 O.co2 168  ASP168     -0.2456
    128  OD2       47.9160   36.9100   27.2400 O.co2 168  ASP168     -0.2456
    129  N         46.6390   40.5040   29.0130 N.3   171  LEU171     -0.1231
    130  CA        46.5350   40.9770   27.6340 C.3   171  LEU171      0.1693
    131  C         45.2310   40.6870   26.9230 C.2   171  LEU171      0.2592
    132  O         44.7270   41.5510   26.1950 O.2   171  LEU171     -0.2718
    133  CB        47.6870   40.3440   26.8740 C.3   171  LEU171      0.0284
    134  CG        48.6660   41.1350   26.0220 C.3   171  LEU171      0.0019
    135  CD1       49.0820   42.4790   26.5970 C.3   171  LEU171      0.0001
    136  CD2       49.9080   40.2490   25.8390 C.3   171  LEU171      0.0001
    137  N         44.6630   39.4860   27.0870 N.am  172  GLY172     -0.1957
    138  CA        43.4570   39.1490   26.3510 C.3   172  GLY172      0.1869
    139  C         42.1440   39.6310   26.9340 C.2   172  GLY172      0.2309
    140  O         41.2890   40.1920   26.2300 O.2   172  GLY172     -0.2863
    141  N         40.4560   43.1100   26.2730 N.3   175  PHE175     -0.1227
    142  CA        39.9500   43.0630   24.9170 C.3   175  PHE175      0.1736
    143  C         38.6650   42.2340   24.8260 C.2   175  PHE175      0.2595
    144  O         37.7060   42.6720   24.2030 O.2   175  PHE175     -0.2718
    145  CB        40.9170   42.3760   23.9620 C.3   175  PHE175      0.0547
    146  CG        41.6900   43.2280   23.0120 C.ar  175  PHE175     -0.0202
    147  CD1       41.4610   43.0780   21.6540 C.ar  175  PHE175     -0.0042
    148  CD2       42.6450   44.1290   23.4320 C.ar  175  PHE175     -0.0042
    149  CE1       42.1720   43.8200   20.7290 C.ar  175  PHE175     -0.0003
    150  CE2       43.3680   44.8730   22.5080 C.ar  175  PHE175     -0.0003
    151  CZ        43.1380   44.7070   21.1530 C.ar  175  PHE175     -0.0000
    152  N         38.6790   41.0400   25.4130 N.am  176  ASN176     -0.1974
    153  CA        37.5500   40.1320   25.2580 C.3   176  ASN176      0.1688
    154  C         36.2760   40.6690   25.8960 C.2   176  ASN176      0.2292
    155  O         35.2200   40.5600   25.2630 O.2   176  ASN176     -0.2864
    156  CB        37.8530   38.7210   25.7520 C.3   176  ASN176      0.1181
    157  CG        39.1860   38.1520   25.3330 C.2   176  ASN176      0.2629
    158  OD1       39.8610   37.5410   26.1870 O.2   176  ASN176     -0.2716
    159  ND2       39.5910   38.3270   24.0830 N.am  176  ASN176     -0.0877
    160  N         49.8270   50.2450   29.3740 N.3   257  ILE257     -0.1231
    161  CA        50.8730   49.4090   29.9360 C.3   257  ILE257      0.1692
    162  C         51.2760   48.3650   28.8950 C.2   257  ILE257      0.2592
    163  O         50.4700   47.5050   28.5450 O.2   257  ILE257     -0.2718
    164  CB        50.4310   48.6680   31.2050 C.3   257  ILE257      0.0266
    165  CG1       49.9180   49.6450   32.2650 C.3   257  ILE257      0.0019
    166  CG2       51.5860   47.8280   31.7430 C.3   257  ILE257      0.0020
    167  CD1       49.1290   48.9870   33.3740 C.3   257  ILE257      0.0001
    168  N         52.4930   48.4710   28.3900 N.am  258  LYS258     -0.1966
    169  CA        53.0070   47.5500   27.4070 C.3   258  LYS258      0.1728
    170  C         53.4260   46.2240   28.0540 C.2   258  LYS258      0.2616
    171  O         54.0720   46.1880   29.0970 O.2   258  LYS258     -0.2715
    172  CB        54.2870   48.0430   26.7260 C.3   258  LYS258      0.0311
    173  CG        54.1700   49.3340   25.9630 C.3   258  LYS258      0.0038
    174  CD        53.5620   49.1010   24.5850 C.3   258  LYS258      0.0206
    175  CE        53.9570   50.2640   23.6760 C.3   258  LYS258      0.1093
    176  NZ        53.7040   49.9150   22.2480 N.3   258  LYS258     -0.1314
    177  N         53.1830   45.1700   27.2870 N.am  259  ALA259     -0.1977
    178  CA        53.6260   43.8630   27.7490 C.3   259  ALA259      0.1597
    179  C         54.2320   43.0930   26.5830 C.2   259  ALA259      0.2287
    180  O         53.7680   43.2220   25.4580 O.2   259  ALA259     -0.2864
    181  CB        52.4880   43.0400   28.3250 C.3   259  ALA259      0.0319
@<TRIPOS>BOND
     1    60    59    2
     2    59    58    1
     3    46    45    2
     4    58    57    1
     5    58    61    1
     6    45    44    1
     7    47    44    1
     8    47    48    1
     9    74    73    2
    10    73    72    1
    11    29    28    2
    12    61    62    1
    13    44    43    1
    14    48    49   ar
    15    48    50   ar
    16    71    72    1
    17    26    27    1
    18    72    75    1
    19    27    28    1
    20    27    30    1
    21    49    51   ar
    22    53    50   ar
    23    53    55   ar
    24    43    37   am
    25    50    52   ar
    26    55    56   ar
    27    75    76    1
    28    83    84    1
    29    62    63   ar
    30    62    64   ar
    31    51    52   ar
    32    35    36    1
    33    52    54   ar
    34    30    31    1
    35    31    32    1
    36    37    36    1
    37    37    38    2
    38    63    65   ar
    39    56    54   ar
    40    64    67   ar
    41    64    66   ar
    42    67    69   ar
    43    86    85    2
    44    36    39    1
    45    76    78   ar
    46    76    77   ar
    47    78    80   ar
    48    40    39    1
    49    40    42    1
    50    23    22    2
    51    25    24    1
    52    84    85    1
    53    84    87    1
    54    21    20    1
    55    21    22    1
    56    21    24    1
    57    85    91   am
    58    32    34   ar
    59    32    33   ar
    60    65    66   ar
    61    39    41    1
    62    87    88    1
    63    66    68   ar
    64    69    70   ar
    65    88    89    1
    66    88    90    1
    67    77    79   ar
    68    80    81   ar
    69    91    92    1
    70    92    93    1
    71    92    95    1
    72    68    70   ar
    73    79    81   ar
    74    81    82    1
    75    93    94    2
    76   110   111   ar
    77   110   108   ar
    78   149   151   ar
    79   149   147   ar
    80   111   109   ar
    81   151   150   ar
    82    13    12    2
    83   108   107   ar
    84    14    15    1
    85    14    11    1
    86   147   146   ar
    87   105   104    2
    88    12    11    1
    89    16    15   ar
    90    16    18   ar
    91    15    17   ar
    92    96    97    1
    93   109   107   ar
    94   176   175    1
    95    18    19   ar
    96    11    10    1
    97   107   106    1
    98   150   148   ar
    99    17    19   ar
   100   104   103    1
   101   146   148   ar
   102   146   145    1
   103   102   103    1
   104   102    98   am
   105    97   100    1
   106    97    98    1
   107   101   100    1
   108   106   103    1
   109   175   174    1
   110   145   142    1
   111   159   157   am
   112    98    99    2
   113   144   143    2
   114   174   173    1
   115   143   142    1
   116   143   152   am
   117   142   141    1
   118   153   152    1
   119   153   156    1
   120   153   154    1
   121   155   154    2
   122   157   156    1
   123   157   158    2
   124   180   179    2
   125   136   134    1
   126   173   172    1
   127   134   135    1
   128   134   133    1
   129   132   131    2
   130   140   139    2
   131   138   139    1
   132   138   137    1
   133   179   178    1
   134   172   169    1
   135   133   130    1
   136   131   137   am
   137   131   130    1
   138   120   118   am
   139   128   126   ar
   140   177   178    1
   141   177   170   am
   142   169   170    1
   143   169   168    1
   144   118   117    1
   145   118   119    2
   146   130   129    1
   147   117   116    1
   148   178   181    1
   149   113   116    1
   150   113   112    1
   151   113   114    1
   152   170   171    2
   153   125   126    1
   154   125   122    1
   155   126   127   ar
   156   168   162   am
   157   114   115    2
   158   163   162    2
   159   162   161    1
   160   121   122    1
   161     9     8    1
   162     8     7    1
   163   122   123    1
   164   160   161    1
   165   124   123    2
   166   161   164    1
   167     7     6    1
   168     4     3    2
   169     3     2    1
   170     6     5    1
   171   164   166    1
   172   164   165    1
   173     5     2    1
   174     2     1    1
   175   165   167    1
