@<TRIPOS>MOLECULE
tmp/1f4gA00.pdb
 234 228 0 0 0
SMALL
GASTEIGER

@<TRIPOS>ATOM
      1  N         16.1750   15.9940   49.6140 N.3    47  LYS47      -0.1231
      2  CA        15.1280   15.1470   49.0940 C.3    47  LYS47       0.1693
      3  C         15.8500   13.8450   48.6760 C.2    47  LYS47       0.2592
      4  O         17.0160   13.9370   48.2830 O.2    47  LYS47      -0.2718
      5  CB        14.3000   15.6600   47.9240 C.3    47  LYS47       0.0285
      6  CG        15.0220   15.6860   46.5830 C.3    47  LYS47       0.0035
      7  CD        14.1860   16.2310   45.4280 C.3    47  LYS47       0.0206
      8  CE        14.9710   16.0420   44.1290 C.3    47  LYS47       0.1093
      9  NZ        14.3630   16.7810   42.9810 N.3    47  LYS47      -0.1314
     10  N         15.1960   12.7030   48.8100 N.am   48  ARG48      -0.1966
     11  CA        15.8320   11.4540   48.4100 C.3    48  ARG48       0.1729
     12  C         16.0060   11.4270   46.8880 C.2    48  ARG48       0.2616
     13  O         15.0460   11.5520   46.1320 O.2    48  ARG48      -0.2715
     14  CB        15.0650   10.2110   48.8600 C.3    48  ARG48       0.0348
     15  CG        15.6690    8.9010   48.3380 C.3    48  ARG48       0.0492
     16  CD        14.9110    7.6890   48.8810 C.3    48  ARG48       0.2205
     17  NE        15.0280    7.5650   50.3250 N.pl3  48  ARG48      -0.0865
     18  CZ        16.1320    7.1610   50.9510 C.cat  48  ARG48       0.5346
     19  NH1       17.2200    6.8290   50.2620 N.pl3  48  ARG48       0.1354
     20  NH2       16.1380    7.0850   52.2740 N.pl3  48  ARG48       0.1354
     21  N         17.2490   11.2560   46.4590 N.am   49  CYS49      -0.1954
     22  CA        17.5630   11.1330   45.0470 C.3    49  CYS49       0.1843
     23  C         18.0550    9.6970   44.8020 C.2    49  CYS49       0.2625
     24  O         18.7540    9.1510   45.6550 O.2    49  CYS49      -0.2714
     25  CB        18.6730   12.0910   44.6260 C.3    49  CYS49       0.0997
     26  SG        18.2350   13.8310   44.7470 S.3    49  CYS49      -0.0797
     27  N         17.6650    9.1300   43.6740 N.am   50  HIS50      -0.1973
     28  CA        18.1070    7.7730   43.3490 C.3    50  HIS50       0.1656
     29  C         19.2810    7.8070   42.3850 C.2    50  HIS50       0.2291
     30  O         19.1900    8.1280   41.2000 O.2    50  HIS50      -0.2864
     31  CB        16.9380    6.9250   42.8400 C.3    50  HIS50       0.0771
     32  CG        15.9200    6.6990   43.9240 C.ar   50  HIS50       0.0820
     33  ND1       16.1540    5.8580   44.9900 N.ar   50  HIS50      -0.2267
     34  CD2       14.6810    7.2110   44.1070 C.ar   50  HIS50       0.1154
     35  CE1       15.0970    5.8530   45.7810 C.ar   50  HIS50       0.1986
     36  NE2       14.1930    6.6670   45.2680 N.ar   50  HIS50      -0.2212
     37  N         19.4540    5.6450   38.6500 N.3    53  SER53      -0.1217
     38  CA        19.1540    6.2130   37.3550 C.3    53  SER53       0.1889
     39  C         20.2910    7.0790   36.8180 C.2    53  SER53       0.2288
     40  O         20.5260    7.0530   35.6190 O.2    53  SER53      -0.2866
     41  CB        17.8460    7.0100   37.3490 C.3    53  SER53       0.2089
     42  OG        16.7150    6.1390   37.3410 O.3    53  SER53      -0.2183
     43  N         22.2640    6.3430   33.2900 N.3    57  GLU57      -0.1245
     44  CA        22.3330    7.3610   32.2350 C.3    57  GLU57       0.1567
     45  C         23.7780    7.6540   31.8380 C.2    57  GLU57       0.2260
     46  O         24.0620    7.7820   30.6440 O.2    57  GLU57      -0.2867
     47  CB        21.6170    8.6440   32.6670 C.3    57  GLU57       0.0388
     48  CG        21.4220    9.6140   31.5110 C.3    57  GLU57       0.1160
     49  CD        21.1240   11.0370   31.9220 C.2    57  GLU57       0.3649
     50  OE1       21.6620   11.5070   32.9490 O.co2  57  GLU57      -0.2457
     51  OE2       20.3530   11.6820   31.1800 O.co2  57  GLU57      -0.2457
     52  N         13.4790    8.3180   32.5390 N.3    78  ILE78      -0.1231
     53  CA        13.5950    9.7610   32.3660 C.3    78  ILE78       0.1692
     54  C         13.6490   10.2090   30.9250 C.2    78  ILE78       0.2592
     55  O         13.2510   11.3490   30.6590 O.2    78  ILE78      -0.2718
     56  CB        14.8160   10.3220   33.1340 C.3    78  ILE78       0.0266
     57  CG1       16.1270    9.7810   32.5590 C.3    78  ILE78       0.0019
     58  CG2       14.6930    9.9770   34.6110 C.3    78  ILE78       0.0020
     59  CD1       17.3390   10.4610   33.1730 C.3    78  ILE78       0.0001
     60  N         14.1310    9.3900   29.9860 N.am   79  TRP79      -0.1976
     61  CA        14.1910    9.7950   28.5920 C.3    79  TRP79       0.1640
     62  C         13.0090    9.3140   27.7610 C.2    79  TRP79       0.2290
     63  O         12.8910    9.6850   26.5850 O.2    79  TRP79      -0.2864
     64  CB        15.5050    9.2600   27.9700 C.3    79  TRP79       0.0576
     65  CG        16.6750   10.1530   28.2900 C.ar   79  TRP79       0.0006
     66  CD1       17.6200    9.9690   29.2510 C.ar   79  TRP79       0.0946
     67  CD2       17.0190   11.3670   27.6100 C.ar   79  TRP79       0.0152
     68  NE1       18.5310   10.9950   29.2130 N.ar   79  TRP79      -0.2442
     69  CE2       18.1710   11.8750   28.2250 C.ar   79  TRP79       0.0810
     70  CE3       16.4240   12.1000   26.5750 C.ar   79  TRP79       0.0012
     71  CZ2       18.7770   13.0640   27.8240 C.ar   79  TRP79       0.0191
     72  CZ3       17.0200   13.2740   26.1650 C.ar   79  TRP79       0.0001
     73  CH2       18.1850   13.7490   26.7910 C.ar   79  TRP79       0.0015
     74  N         10.7680   11.6210   25.4020 N.3    82  TRP82      -0.1241
     75  CA        11.4550   12.2820   24.3140 C.3    82  TRP82       0.1605
     76  C         11.6540   11.3990   23.0890 C.2    82  TRP82       0.2264
     77  O         12.0080   11.9120   22.0270 O.2    82  TRP82      -0.2867
     78  CB        12.8540   12.6770   24.8370 C.3    82  TRP82       0.0550
     79  CG        12.7310   13.6450   25.9830 C.ar   82  TRP82       0.0003
     80  CD1       12.7020   13.3470   27.3120 C.ar   82  TRP82       0.0946
     81  CD2       12.6030   15.0640   25.8780 C.ar   82  TRP82       0.0152
     82  NE1       12.5630   14.5000   28.0470 N.ar   82  TRP82      -0.2442
     83  CE2       12.5100   15.5680   27.1880 C.ar   82  TRP82       0.0810
     84  CE3       12.5930   15.9610   24.8060 C.ar   82  TRP82       0.0012
     85  CZ2       12.3950   16.9310   27.4600 C.ar   82  TRP82       0.0191
     86  CZ3       12.4630   17.3100   25.0750 C.ar   82  TRP82       0.0001
     87  CH2       12.3650   17.7810   26.3910 C.ar   82  TRP82       0.0015
     88  N         23.5290   13.8810   23.3680 N.3    93  TYR93      -0.1241
     89  CA        24.7220   13.7100   24.1790 C.3    93  TYR93       0.1605
     90  C         25.7140   12.6250   23.8190 C.2    93  TYR93       0.2264
     91  O         26.8300   12.9250   23.3700 O.2    93  TYR93      -0.2867
     92  CB        24.2740   13.4630   25.6390 C.3    93  TYR93       0.0534
     93  CG        23.4820   14.5980   26.2430 C.ar   93  TYR93      -0.0201
     94  CD1       24.1100   15.7760   26.6600 C.ar   93  TYR93      -0.0009
     95  CD2       22.1170   14.4790   26.4510 C.ar   93  TYR93      -0.0009
     96  CE1       23.3710   16.8090   27.2110 C.ar   93  TYR93       0.0417
     97  CE2       21.3850   15.4940   27.0380 C.ar   93  TYR93       0.0417
     98  CZ        22.0210   16.6550   27.4160 C.ar   93  TYR93       0.1957
     99  OH        21.2970   17.6550   28.0290 O.3    93  TYR93      -0.2866
    100  N         16.2550   16.5290   21.9530 N.3   142  LEU142     -0.1245
    101  CA        16.4970   17.6220   22.8730 C.3   142  LEU142      0.1561
    102  C         17.9130   18.1640   22.6410 C.2   142  LEU142      0.2260
    103  O         18.8520   17.3670   22.7580 O.2   142  LEU142     -0.2867
    104  CB        16.4080   17.1570   24.3320 C.3   142  LEU142      0.0270
    105  CG        16.7980   18.1440   25.4310 C.3   142  LEU142      0.0019
    106  CD1       15.9100   19.3760   25.4150 C.3   142  LEU142      0.0001
    107  CD2       16.7860   17.4710   26.7980 C.3   142  LEU142      0.0001
    108  N         21.4390   20.2730   27.1200 N.3   145  CYS145     -0.1221
    109  CA        21.2680   21.2270   28.2240 C.3   145  CYS145      0.1808
    110  C         22.5740   21.3510   28.9890 C.2   145  CYS145      0.2601
    111  O         23.0950   22.4600   29.1710 O.2   145  CYS145     -0.2717
    112  CB        20.1000   20.8070   29.1080 C.3   145  CYS145      0.0970
    113  SG        18.5340   20.8960   28.1990 S.3   145  CYS145     -0.0800
    114  N         23.1570   20.2030   29.3460 N.am  146  HIS146     -0.1975
    115  CA        24.5100   20.2210   29.9440 C.3   146  HIS146      0.1656
    116  C         25.4140   20.1170   28.7100 C.2   146  HIS146      0.2291
    117  O         25.5200   19.0600   28.0900 O.2   146  HIS146     -0.2864
    118  CB        24.7000   19.1350   30.9780 C.3   146  HIS146      0.0771
    119  CG        24.1160   17.7820   30.7270 C.ar  146  HIS146      0.0820
    120  ND1       24.8870   16.7230   30.2830 N.ar  146  HIS146     -0.2267
    121  CD2       22.8490   17.2970   30.9070 C.ar  146  HIS146      0.1154
    122  CE1       24.1120   15.6440   30.1820 C.ar  146  HIS146      0.1986
    123  NE2       22.8760   15.9730   30.5370 N.ar  146  HIS146     -0.2212
    124  N         26.0820   24.7730   31.6050 N.3   164  GLN164     -0.1245
    125  CA        24.7370   24.2030   31.4090 C.3   164  GLN164      0.1566
    126  C         23.8290   25.3300   30.9350 C.2   164  GLN164      0.2260
    127  O         23.3550   26.1550   31.7000 O.2   164  GLN164     -0.2867
    128  CB        24.2060   23.5290   32.6660 C.3   164  GLN164      0.0367
    129  CG        22.7840   22.9910   32.5820 C.3   164  GLN164      0.0905
    130  CD        22.4430   21.8790   33.5400 C.2   164  GLN164      0.2608
    131  OE1       23.2690   21.4960   34.3790 O.2   164  GLN164     -0.2717
    132  NE2       21.2470   21.2850   33.4270 N.am  164  GLN164     -0.0878
    133  N         20.7680   25.3020   29.8010 N.3   166  SER166     -0.1202
    134  CA        19.3790   25.3260   30.2840 C.3   166  SER166      0.2020
    135  C         19.3320   24.4000   31.4970 C.2   166  SER166      0.2619
    136  O         19.8360   23.2840   31.3840 O.2   166  SER166     -0.2717
    137  CB        18.3980   24.8710   29.2150 C.3   166  SER166      0.2103
    138  OG        17.0840   24.7500   29.7780 O.3   166  SER166     -0.2182
    139  N         18.8080   24.8840   32.6160 N.am  167  CYS167     -0.1955
    140  CA        18.7980   24.0770   33.8160 C.3   167  CYS167      0.1843
    141  C         17.4250   24.0860   34.4750 C.2   167  CYS167      0.2625
    142  O         16.9150   25.1560   34.8000 O.2   167  CYS167     -0.2714
    143  CB        19.8140   24.6460   34.8310 C.3   167  CYS167      0.0997
    144  SG        19.8320   23.6630   36.3500 S.3   167  CYS167     -0.0797
    145  N         16.8840   22.9090   34.6750 N.am  168  ASP168     -0.1971
    146  CA        15.6360   22.7340   35.4330 C.3   168  ASP168      0.1709
    147  C         16.1250   22.5640   36.8730 C.2   168  ASP168      0.2293
    148  O         16.6630   21.5030   37.1870 O.2   168  ASP168     -0.2864
    149  CB        14.9180   21.4920   34.9060 C.3   168  ASP168      0.1436
    150  CG        13.7110   21.1030   35.7540 C.2   168  ASP168      0.3671
    151  OD1       13.6000   21.5550   36.9050 O.co2 168  ASP168     -0.2456
    152  OD2       12.8510   20.3180   35.2990 O.co2 168  ASP168     -0.2456
    153  N         14.1490   19.5580   39.2140 N.3   171  LEU171     -0.1231
    154  CA        14.1560   18.1450   38.7840 C.3   171  LEU171      0.1693
    155  C         15.4480   17.6890   38.1320 C.2   171  LEU171      0.2592
    156  O         15.9230   16.5810   38.3650 O.2   171  LEU171     -0.2718
    157  CB        13.0030   17.9300   37.7990 C.3   171  LEU171      0.0284
    158  CG        12.2220   16.6250   37.8010 C.3   171  LEU171      0.0019
    159  CD1       11.7220   16.2350   39.1910 C.3   171  LEU171      0.0001
    160  CD2       11.0250   16.7590   36.8500 C.3   171  LEU171      0.0001
    161  N         15.9900   18.5120   37.2440 N.am  172  GLY172     -0.1957
    162  CA        17.1960   18.1530   36.5150 C.3   172  GLY172      0.1869
    163  C         18.4950   18.3270   37.2650 C.2   172  GLY172      0.2309
    164  O         19.3270   17.4230   37.3010 O.2   172  GLY172     -0.2863
    165  N         20.3610   15.6360   39.4550 N.3   175  PHE175     -0.1227
    166  CA        20.8700   14.5830   38.5960 C.3   175  PHE175      0.1736
    167  C         22.1280   15.0340   37.8510 C.2   175  PHE175      0.2595
    168  O         23.1470   14.3450   37.8130 O.2   175  PHE175     -0.2718
    169  CB        19.8270   14.2240   37.5430 C.3   175  PHE175      0.0547
    170  CG        18.9790   13.0100   37.7350 C.ar  175  PHE175     -0.0202
    171  CD1       18.1060   12.8900   38.8030 C.ar  175  PHE175     -0.0042
    172  CD2       19.0410   11.9810   36.8140 C.ar  175  PHE175     -0.0042
    173  CE1       17.3300   11.7540   38.9610 C.ar  175  PHE175     -0.0003
    174  CE2       18.2790   10.8390   36.9610 C.ar  175  PHE175     -0.0003
    175  CZ        17.4130   10.7370   38.0300 C.ar  175  PHE175     -0.0000
    176  N         22.0550   16.2210   37.2570 N.am  176  ASN176     -0.1974
    177  CA        23.1860   16.7370   36.4790 C.3   176  ASN176      0.1688
    178  C         24.4390   16.8550   37.3280 C.2   176  ASN176      0.2292
    179  O         25.5270   16.5140   36.8600 O.2   176  ASN176     -0.2864
    180  CB        22.8530   18.0550   35.7940 C.3   176  ASN176      0.1181
    181  CG        21.5530   18.0180   35.0150 C.2   176  ASN176      0.2629
    182  OD1       20.8380   19.0220   35.0490 O.2   176  ASN176     -0.2716
    183  ND2       21.2500   16.9070   34.3640 N.am  176  ASN176     -0.0877
    184  N         16.3750   27.9880   35.6820 N.3   205  HIS205     -0.1241
    185  CA        15.0050   28.2490   36.0640 C.3   205  HIS205      0.1621
    186  C         14.3260   27.2280   36.9530 C.2   205  HIS205      0.2264
    187  O         14.6190   26.0380   36.9650 O.2   205  HIS205     -0.2867
    188  CB        14.1810   28.3330   34.7470 C.3   205  HIS205      0.0745
    189  CG        14.4970   27.2390   33.7680 C.ar  205  HIS205      0.0817
    190  ND1       15.4560   27.3880   32.7930 N.ar  205  HIS205     -0.2268
    191  CD2       14.0240   25.9760   33.6320 C.ar  205  HIS205      0.1154
    192  CE1       15.5470   26.2800   32.0780 C.ar  205  HIS205      0.1986
    193  NE2       14.6800   25.4100   32.5600 N.ar  205  HIS205     -0.2212
    194  N         10.5300   25.7610   37.3300 N.3   207  TYR207     -0.1241
    195  CA         9.2320   25.6830   36.6620 C.3   207  TYR207      0.1605
    196  C          8.1600   26.0670   37.6700 C.2   207  TYR207      0.2264
    197  O          8.2460   25.6950   38.8430 O.2   207  TYR207     -0.2867
    198  CB         8.9850   24.2940   36.0910 C.3   207  TYR207      0.0534
    199  CG         9.7580   24.0470   34.8110 C.ar  207  TYR207     -0.0201
    200  CD1        9.3290   24.6380   33.6240 C.ar  207  TYR207     -0.0009
    201  CD2       10.8870   23.2490   34.7810 C.ar  207  TYR207     -0.0009
    202  CE1       10.0090   24.4330   32.4390 C.ar  207  TYR207      0.0417
    203  CE2       11.5740   23.0330   33.6060 C.ar  207  TYR207      0.0417
    204  CZ        11.1360   23.6240   32.4370 C.ar  207  TYR207      0.1957
    205  OH        11.8120   23.4150   31.2670 O.3   207  TYR207     -0.2866
    206  N         10.5580   13.9740   47.2010 N.3   256  ILE256     -0.1231
    207  CA         9.5510   14.9700   46.8460 C.3   256  ILE256      0.1692
    208  C          9.2470   14.7870   45.3580 C.2   256  ILE256      0.2592
    209  O         10.1210   15.0610   44.5240 O.2   256  ILE256     -0.2718
    210  CB        10.0190   16.4150   47.1020 C.3   256  ILE256      0.0266
    211  CG1       10.4690   16.6440   48.5550 C.3   256  ILE256      0.0019
    212  CG2        8.9070   17.3980   46.7310 C.3   256  ILE256      0.0020
    213  CD1       11.1400   17.9890   48.8010 C.3   256  ILE256      0.0001
    214  N          8.0600   14.3010   45.0300 N.am  257  LYS257     -0.1966
    215  CA         7.7010   14.0720   43.6270 C.3   257  LYS257      0.1728
    216  C          7.3150   15.3710   42.9280 C.2   257  LYS257      0.2616
    217  O          6.7900   16.2740   43.5790 O.2   257  LYS257     -0.2715
    218  CB         6.5250   13.1130   43.5000 C.3   257  LYS257      0.0311
    219  CG         6.5590   11.8120   44.2660 C.3   257  LYS257      0.0038
    220  CD         5.3020   10.9990   43.9700 C.3   257  LYS257      0.0206
    221  CE         5.0570    9.9270   45.0170 C.3   257  LYS257      0.1093
    222  NZ         3.7190    9.2880   44.8650 N.3   257  LYS257     -0.1314
    223  N          7.5770   15.4700   41.6240 N.am  258  ALA258     -0.1977
    224  CA         7.1870   16.6870   40.9040 C.3   258  ALA258      0.1597
    225  C          6.9380   16.3670   39.4400 C.2   258  ALA258      0.2287
    226  O          7.5610   15.4610   38.8940 O.2   258  ALA258     -0.2864
    227  CB         8.2530   17.7560   41.0300 C.3   258  ALA258      0.0319
    228  N          7.1480   16.7410   35.4270 N.3   260  VAL260     -0.1245
    229  CA         8.1550   17.2140   34.4780 C.3   260  VAL260      0.1561
    230  C          7.5310   18.2180   33.5090 C.2   260  VAL260      0.2260
    231  O          7.8120   19.4150   33.6190 O.2   260  VAL260     -0.2867
    232  CB         8.8340   16.0670   33.7230 C.3   260  VAL260      0.0252
    233  CG1        7.8870   15.3840   32.7490 C.3   260  VAL260      0.0019
    234  CG2       10.0780   16.5600   32.9970 C.3   260  VAL260      0.0019
@<TRIPOS>BOND
     1   100   101    1
     2    77    76    2
     3   102   103    2
     4   102   101    1
     5   101   104    1
     6    76    75    1
     7    88    89    1
     8    91    90    2
     9    90    89    1
    10    89    92    1
    11    75    78    1
    12    75    74    1
    13   104   105    1
    14    84    86   ar
    15    84    81   ar
    16    78    79    1
    17    86    87   ar
    18   106   105    1
    19   105   107    1
    20    92    93    1
    21    81    79   ar
    22    81    83   ar
    23    79    80   ar
    24    72    70   ar
    25    72    73   ar
    26    93    95   ar
    27    93    94   ar
    28    87    85   ar
    29    95    97   ar
    30    70    67   ar
    31    63    62    2
    32    94    96   ar
    33    73    71   ar
    34    97    98   ar
    35   108   109    1
    36    83    85   ar
    37    83    82   ar
    38    96    98   ar
    39    80    82   ar
    40    98    99    1
    41    67    69   ar
    42    67    65   ar
    43    62    61    1
    44    71    69   ar
    45    64    65    1
    46    64    61    1
    47   117   116    2
    48   113   112    1
    49   109   110    1
    50   109   112    1
    51    69    68   ar
    52    65    66   ar
    53    61    60    1
    54   116   115    1
    55   110   111    2
    56   110   114   am
    57    68    66   ar
    58   137   138    1
    59   137   134    1
    60   114   115    1
    61   133   134    1
    62   115   118    1
    63    60    54   am
    64   122   120   ar
    65   122   123   ar
    66   120   119   ar
    67   134   135    1
    68   123   121   ar
    69    46    45    2
    70    55    54    2
    71   119   121   ar
    72   119   118    1
    73    54    53    1
    74   126   125    1
    75   126   127    2
    76    51    49   ar
    77   205   204    1
    78   136   135    2
    79   125   124    1
    80   125   128    1
    81   135   139   am
    82    48    49    1
    83    48    47    1
    84    45    44    1
    85    49    50   ar
    86   192   193   ar
    87   192   190   ar
    88    44    47    1
    89    44    43    1
    90    53    52    1
    91    53    56    1
    92   204   202   ar
    93   204   203   ar
    94   202   200   ar
    95    57    56    1
    96    57    59    1
    97   193   191   ar
    98   129   128    1
    99   129   130    1
   100   139   140    1
   101   233   232    1
   102   190   189   ar
   103   234   232    1
   104    56    58    1
   105   132   130   am
   106   230   231    2
   107   230   229    1
   108   130   131    2
   109   203   201   ar
   110   200   199   ar
   111   191   189   ar
   112   232   229    1
   113   189   188    1
   114   140   141    1
   115   140   143    1
   116   183   181   am
   117   141   145   am
   118   141   142    2
   119   229   228    1
   120   145   146    1
   121   188   185    1
   122   201   199   ar
   123   199   198    1
   124   143   144    1
   125   149   146    1
   126   149   150    1
   127   181   182    2
   128   181   180    1
   129   152   150   ar
   130   146   147    1
   131    40    39    2
   132   184   185    1
   133   150   151   ar
   134   180   177    1
   135   185   186    1
   136   198   195    1
   137   177   176    1
   138   177   178    1
   139   162   161    1
   140   162   163    1
   141   195   194    1
   142   195   196    1
   143   172   174   ar
   144   172   170   ar
   145    39    38    1
   146   160   158    1
   147   179   178    2
   148   147   148    2
   149   186   187    2
   150   174   175   ar
   151   161   155   am
   152   176   167   am
   153   163   164    2
   154    42    41    1
   155    41    38    1
   156    38    37    1
   157   169   170    1
   158   169   166    1
   159   196   197    2
   160   170   171   ar
   161   157   158    1
   162   157   154    1
   163   158   159    1
   164   168   167    2
   165   167   166    1
   166   175   173   ar
   167   155   156    2
   168   155   154    1
   169   166   165    1
   170   154   153    1
   171   171   173   ar
   172   226   225    2
   173   225   224    1
   174   224   227    1
   175   224   223    1
   176    30    29    2
   177   223   216   am
   178    29    28    1
   179    31    28    1
   180    31    32    1
   181   216   217    2
   182   216   215    1
   183     9     8    1
   184    28    27    1
   185   218   215    1
   186   218   219    1
   187   215   214    1
   188    27    23   am
   189    32    34   ar
   190    32    33   ar
   191   220   219    1
   192   220   221    1
   193    34    36   ar
   194     8     7    1
   195   209   208    2
   196    25    26    1
   197    25    22    1
   198    23    22    1
   199    23    24    2
   200   222   221    1
   201    33    35   ar
   202   214   208   am
   203    22    21    1
   204    36    35   ar
   205   208   207    1
   206     7     6    1
   207    13    12    2
   208    21    12   am
   209     6     5    1
   210   212   210    1
   211   207   210    1
   212   207   206    1
   213    12    11    1
   214   210   211    1
   215     5     2    1
   216     4     3    2
   217    15    14    1
   218    15    16    1
   219    11    10    1
   220    11    14    1
   221   211   213    1
   222     3    10   am
   223     3     2    1
   224    16    17    1
   225     2     1    1
   226    19    18    1
   227    17    18    2
   228    18    20    1
