@<TRIPOS>MOLECULE
tmp/1f4yB00.pdb
 90 87 0 0 0
SMALL
GASTEIGER

@<TRIPOS>ATOM
      1  N         34.4800   32.3540  -19.7860 N.3    31  THR31      -0.1203
      2  CA        34.8820   33.4800  -18.9720 C.3    31  THR31       0.1994
      3  C         35.1700   33.0400  -17.5470 C.2    31  THR31       0.2618
      4  O         36.3020   33.1560  -17.0560 O.2    31  THR31      -0.2717
      5  CB        33.6430   34.3810  -19.1640 C.3    31  THR31       0.1784
      6  OG1       32.5730   33.5050  -18.8000 O.3    31  THR31      -0.2211
      7  CG2       33.3210   34.7150  -20.6130 C.3    31  THR31       0.0376
      8  N         34.2030   32.4020  -16.8900 N.am   32  TYR32      -0.1961
      9  CA        34.2720   31.9170  -15.5430 C.3    32  TYR32       0.1771
     10  C         35.1530   30.7670  -15.1540 C.2    32  TYR32       0.2619
     11  O         35.3530   29.7550  -15.7420 O.2    32  TYR32      -0.2715
     12  CB        32.8060   31.6080  -15.1770 C.3    32  TYR32       0.0574
     13  CG        31.9820   32.8430  -15.5770 C.ar   32  TYR32      -0.0198
     14  CD1       30.9280   32.7640  -16.4720 C.ar   32  TYR32      -0.0009
     15  CD2       32.3020   34.0550  -14.9750 C.ar   32  TYR32      -0.0009
     16  CE1       30.1830   33.8830  -16.7750 C.ar   32  TYR32       0.0417
     17  CE2       31.5600   35.1780  -15.3050 C.ar   32  TYR32       0.0417
     18  CZ        30.5260   35.1040  -16.2150 C.ar   32  TYR32       0.1957
     19  OH        29.8580   36.2720  -16.4970 O.3    32  TYR32      -0.2866
     20  N         35.7840   30.8880  -13.9880 N.am   33  ASP33      -0.1971
     21  CA        36.7190   30.0460  -13.2630 C.3    33  ASP33       0.1709
     22  C         36.0060   28.8670  -12.6850 C.2    33  ASP33       0.2293
     23  O         34.7630   28.9100  -12.5470 O.2    33  ASP33      -0.2864
     24  CB        37.3230   30.9560  -12.1910 C.3    33  ASP33       0.1436
     25  CG        38.8370   30.9190  -12.3300 C.2    33  ASP33       0.3671
     26  OD1       39.2790   30.8770  -13.5200 O.co2  33  ASP33      -0.2456
     27  OD2       39.4970   30.9450  -11.2320 O.co2  33  ASP33      -0.2456
     28  N         40.3570   22.5370   -8.9750 N.3    50  PHE50      -0.1241
     29  CA        40.0840   23.9460   -9.3600 C.3    50  PHE50       0.1605
     30  C         40.6220   24.1500  -10.7820 C.2    50  PHE50       0.2264
     31  O         41.7290   23.6900  -11.0330 O.2    50  PHE50      -0.2867
     32  CB        40.7230   24.9420   -8.3680 C.3    50  PHE50       0.0534
     33  CG        40.7790   26.3510   -8.8400 C.ar   50  PHE50      -0.0203
     34  CD1       39.6540   27.1310   -8.9480 C.ar   50  PHE50      -0.0042
     35  CD2       42.0060   26.8870   -9.2060 C.ar   50  PHE50      -0.0042
     36  CE1       39.7510   28.4240   -9.4340 C.ar   50  PHE50      -0.0003
     37  CE2       42.0800   28.1770   -9.6800 C.ar   50  PHE50      -0.0003
     38  CZ        40.9550   28.9330   -9.7970 C.ar   50  PHE50      -0.0000
     39  N         39.9760   29.9620  -15.9700 N.3    53  SER53      -0.1217
     40  CA        39.3850   30.5480  -17.1300 C.3    53  SER53       0.1889
     41  C         39.9140   30.0250  -18.4730 C.2    53  SER53       0.2288
     42  O         39.0680   29.5820  -19.2970 O.2    53  SER53      -0.2866
     43  CB        39.6810   32.0570  -17.1490 C.3    53  SER53       0.2089
     44  OG        38.4310   32.6970  -17.2850 O.3    53  SER53      -0.2183
     45  N         45.4020   27.4610  -14.8240 N.3    57  ARG57      -0.1245
     46  CA        45.7900   27.0360  -13.4780 C.3    57  ARG57       0.1563
     47  C         44.8940   25.9860  -12.8110 C.2    57  ARG57       0.2260
     48  O         43.6550   26.0320  -12.8620 O.2    57  ARG57      -0.2867
     49  CB        45.8790   28.3100  -12.6280 C.3    57  ARG57       0.0307
     50  CG        46.4510   27.9190  -11.2350 C.3    57  ARG57       0.0489
     51  CD        46.9100   29.1570  -10.4890 C.3    57  ARG57       0.2205
     52  NE        45.7630   30.0320  -10.2800 N.pl3  57  ARG57      -0.0865
     53  CZ        45.4580   31.1130  -10.9810 C.cat  57  ARG57       0.5346
     54  NH1       46.2640   31.5760  -11.9500 N.pl3  57  ARG57       0.1354
     55  NH2       44.2860   31.7200  -10.8020 N.pl3  57  ARG57       0.1354
     56  N         32.4650   29.6760  -10.5200 N.3    99  HIS99      -0.1297
     57  CA        32.7980   30.8190   -9.6970 C.3    99  HIS99       0.1306
     58  C         32.2780   32.1310  -10.2930 C.3    99  HIS99       0.2013
     59  O         33.0340   32.6450  -11.0910 O.3    99  HIS99      -0.2188
     60  CB        34.2890   31.1750   -9.5870 C.3    99  HIS99       0.0691
     61  CG        35.1010   30.1770   -8.8840 C.ar   99  HIS99       0.0814
     62  ND1       36.4000   30.3590   -8.5900 N.ar   99  HIS99      -0.2268
     63  CD2       34.8290   28.9560   -8.4120 C.ar   99  HIS99       0.1154
     64  CE1       36.9030   29.3000   -7.9760 C.ar   99  HIS99       0.1986
     65  NE2       35.9510   28.4180   -7.8750 N.ar   99  HIS99      -0.2212
     66  N         32.5720   35.3550  -10.2270 N.3   101  TYR101     -0.1227
     67  CA        33.3680   36.4590   -9.6920 C.3   101  TYR101      0.1736
     68  C         33.3780   36.1680   -8.1940 C.2   101  TYR101      0.2595
     69  O         32.8110   36.6070   -7.1990 O.2   101  TYR101     -0.2718
     70  CB        32.8920   37.7580  -10.2570 C.3   101  TYR101      0.0548
     71  CG        32.6620   38.0650  -11.7310 C.ar  101  TYR101     -0.0200
     72  CD1       31.3240   38.2470  -12.1320 C.ar  101  TYR101     -0.0009
     73  CD2       33.6220   38.2200  -12.7240 C.ar  101  TYR101     -0.0009
     74  CE1       30.9630   38.5660  -13.4070 C.ar  101  TYR101      0.0417
     75  CE2       33.2820   38.5140  -14.0370 C.ar  101  TYR101      0.0417
     76  CZ        31.9470   38.7170  -14.3750 C.ar  101  TYR101      0.1957
     77  OH        31.5070   39.0920  -15.6520 O.3   101  TYR101     -0.2866
     78  N         34.0530   35.0290   -7.9550 N.am  102  ALA102     -0.1980
     79  CA        34.2330   34.4590   -6.6370 C.3   102  ALA102      0.1597
     80  C         32.9130   34.1520   -5.9360 C.2   102  ALA102      0.2287
     81  O         32.9850   34.0150   -4.6950 O.2   102  ALA102     -0.2864
     82  CB        35.1280   35.3740   -5.8140 C.3   102  ALA102      0.0319
     83  N         30.7060   31.1730   -5.9200 N.3   104  LEU104     -0.1245
     84  CA        30.1580   29.8650   -6.2150 C.3   104  LEU104      0.1561
     85  C         28.6330   30.0470   -6.1450 C.2   104  LEU104      0.2260
     86  O         28.1530   30.1160   -5.0510 O.2   104  LEU104     -0.2867
     87  CB        30.5080   28.9630   -5.0680 C.3   104  LEU104      0.0270
     88  CG        31.8930   28.6180   -4.5790 C.3   104  LEU104      0.0019
     89  CD1       31.8070   27.3620   -3.6980 C.3   104  LEU104      0.0001
     90  CD2       32.8870   28.3270   -5.7010 C.3   104  LEU104      0.0001
@<TRIPOS>BOND
     1     7     5    1
     2     1     2    1
     3    42    41    2
     4     5     2    1
     5     5     6    1
     6     2     3    1
     7    41    40    1
     8     3     4    2
     9     3     8   am
    10    44    43    1
    11    43    40    1
    12    40    39    1
    13     8     9    1
    14    16    14   ar
    15    16    18   ar
    16    19    18    1
    17    14    13   ar
    18    18    17   ar
    19    11    10    2
    20    77    76    1
    21    13    12    1
    22    13    15   ar
    23     9    12    1
    24     9    10    1
    25    17    15   ar
    26    10    20   am
    27    45    46    1
    28    76    75   ar
    29    76    74   ar
    30    75    73   ar
    31    20    21    1
    32    26    25   ar
    33    46    47    1
    34    46    49    1
    35    74    72   ar
    36    21    22    1
    37    21    24    1
    38    48    47    2
    39    73    71   ar
    40    22    23    2
    41    49    50    1
    42    25    24    1
    43    25    27   ar
    44    72    71   ar
    45    54    53    1
    46    71    70    1
    47    50    51    1
    48    59    58    1
    49    31    30    2
    50    53    55    1
    51    53    52    2
    52    30    29    1
    53    56    57    1
    54    51    52    1
    55    58    57    1
    56    70    67    1
    57    66    67    1
    58    38    37   ar
    59    38    36   ar
    60    57    60    1
    61    67    68    1
    62    37    35   ar
    63    60    61    1
    64    36    34   ar
    65    29    28    1
    66    29    32    1
    67    35    33   ar
    68    34    33   ar
    69    61    62   ar
    70    61    63   ar
    71    33    32    1
    72    62    64   ar
    73    63    65   ar
    74    68    78   am
    75    68    69    2
    76    64    65   ar
    77    78    79    1
    78    79    80    1
    79    79    82    1
    80    84    85    1
    81    84    83    1
    82    84    87    1
    83    85    86    2
    84    80    81    2
    85    90    88    1
    86    87    88    1
    87    88    89    1
