@<TRIPOS>MOLECULE
tmp/1f57A00.pdb
 117 111 0 0 0
SMALL
GASTEIGER

@<TRIPOS>ATOM
      1  N         13.5810   -1.6230   24.1220 N.3    69  HIS69      -0.1241
      2  CA        14.4830   -2.3670   25.0270 C.3    69  HIS69       0.1621
      3  C         15.8460   -1.8440   24.6040 C.2    69  HIS69       0.2264
      4  O         16.3030   -2.1260   23.5050 O.2    69  HIS69      -0.2867
      5  CB        14.3720   -3.8740   24.7930 C.3    69  HIS69       0.0745
      6  CG        13.1260   -4.4660   25.3770 C.ar   69  HIS69       0.0817
      7  ND1       12.4310   -5.4790   24.7650 N.ar   69  HIS69      -0.2268
      8  CD2       12.4520   -4.1850   26.5210 C.ar   69  HIS69       0.1154
      9  CE1       11.3810   -5.8050   25.4970 C.ar   69  HIS69       0.1986
     10  NE2       11.3710   -5.0340   26.5700 N.ar   69  HIS69      -0.2212
     11  N         18.9550   -3.7080   22.6630 N.3    72  GLU72      -0.1245
     12  CA        18.7660   -4.2850   21.3330 C.3    72  GLU72       0.1567
     13  C         19.2600   -3.3010   20.2770 C.2    72  GLU72       0.2260
     14  O         18.5090   -2.8290   19.4380 O.2    72  GLU72      -0.2867
     15  CB        17.2900   -4.6590   21.1850 C.3    72  GLU72       0.0388
     16  CG        16.9310   -5.7360   22.2200 C.3    72  GLU72       0.1160
     17  CD        15.4270   -5.9780   22.4450 C.2    72  GLU72       0.3649
     18  OE1       15.1030   -6.6300   23.4500 O.co2  72  GLU72      -0.2457
     19  OE2       14.5920   -5.5330   21.6320 O.co2  72  GLU72      -0.2457
     20  N         18.0370   -3.4840   29.7780 N.3   127  ARG127     -0.1245
     21  CA        16.8110   -3.6400   28.9790 C.3   127  ARG127      0.1563
     22  C         15.6680   -2.6740   29.3200 C.2   127  ARG127      0.2260
     23  O         14.9220   -2.2420   28.4410 O.2   127  ARG127     -0.2867
     24  CB        16.3110   -5.0940   29.1550 C.3   127  ARG127      0.0307
     25  CG        14.8110   -5.3660   28.9270 C.3   127  ARG127      0.0489
     26  CD        14.5400   -6.8890   29.0960 C.3   127  ARG127      0.2205
     27  NE        13.1350   -7.2810   28.9500 N.pl3 127  ARG127     -0.0865
     28  CZ        12.6490   -7.9500   27.9020 C.cat 127  ARG127      0.5346
     29  NH1       13.4520   -8.3030   26.9010 N.pl3 127  ARG127      0.1354
     30  NH2       11.3620   -8.2710   27.8470 N.pl3 127  ARG127      0.1354
     31  N          7.9840   -3.0190   27.5720 N.3   144  ASN144     -0.1225
     32  CA         7.1050   -3.8510   26.7500 C.3   144  ASN144      0.1785
     33  C          6.2380   -4.8040   27.5750 C.2   144  ASN144      0.2597
     34  O          5.7470   -5.8100   27.0630 O.2   144  ASN144     -0.2718
     35  CB         7.8550   -4.6360   25.6610 C.3   144  ASN144      0.1169
     36  CG         6.9130   -5.0710   24.5230 C.2   144  ASN144      0.2627
     37  OD1        5.9500   -4.3660   24.2030 O.2   144  ASN144     -0.2716
     38  ND2        7.1730   -6.2350   23.9330 N.am  144  ASN144     -0.0877
     39  N          6.0710   -4.4930   28.8610 N.am  145  ARG145     -0.1979
     40  CA         5.1720   -5.2570   29.7420 C.3   145  ARG145      0.1597
     41  C          4.3010   -4.2210   30.4610 C.2   145  ARG145      0.2287
     42  O          3.5010   -4.5690   31.3360 O.2   145  ARG145     -0.2864
     43  CB         5.9400   -6.0610   30.8090 C.3   145  ARG145      0.0334
     44  CG         6.8550   -7.1730   30.2610 C.3   145  ARG145      0.0492
     45  CD         6.0760   -8.2640   29.5850 C.3   145  ARG145      0.2205
     46  NE         6.9390   -9.4080   29.2610 N.pl3 145  ARG145     -0.0865
     47  CZ         7.7160   -9.4620   28.1800 C.cat 145  ARG145      0.5346
     48  NH1        7.7370   -8.4410   27.3240 N.pl3 145  ARG145      0.1354
     49  NH2        8.4530  -10.5380   27.9390 N.pl3 145  ARG145      0.1354
     50  N         12.2180   -5.1820   17.6850 N.3   196  HIS196     -0.1226
     51  CA        13.0490   -5.7160   18.7630 C.3   196  HIS196      0.1752
     52  C         14.1230   -6.6420   18.1790 C.2   196  HIS196      0.2597
     53  O         14.2240   -6.7960   16.9770 O.2   196  HIS196     -0.2718
     54  CB        12.1590   -6.5710   19.6740 C.3   196  HIS196      0.0759
     55  CG        11.1840   -5.7770   20.4830 C.ar  196  HIS196      0.0818
     56  ND1       11.3680   -5.5410   21.8250 N.ar  196  HIS196     -0.2268
     57  CD2       10.0300   -5.1550   20.1470 C.ar  196  HIS196      0.1154
     58  CE1       10.3710   -4.8090   22.2880 C.ar  196  HIS196      0.1986
     59  NE2        9.5440   -4.5560   21.2890 N.ar  196  HIS196     -0.2212
     60  N         14.9320   -7.2300   19.0610 N.am  197  SER197     -0.1938
     61  CA        15.8960   -8.2720   18.6730 C.3   197  SER197      0.2055
     62  C         16.0530   -9.0970   19.9650 C.2   197  SER197      0.2643
     63  O         15.7890   -8.5780   21.0520 O.2   197  SER197     -0.2714
     64  CB        17.2270   -7.6830   18.1830 C.3   197  SER197      0.2130
     65  OG        18.0950   -7.3600   19.2520 O.3   197  SER197     -0.2179
     66  N         16.4350  -10.3700   19.8820 N.am  198  TYR198     -0.1973
     67  CA        16.7320  -11.0650   18.6360 C.3   198  TYR198      0.1639
     68  C         15.8950  -12.3540   18.6230 C.2   198  TYR198      0.2290
     69  O         15.1930  -12.6550   19.5930 O.2   198  TYR198     -0.2864
     70  CB        18.2380  -11.4260   18.5810 C.3   198  TYR198      0.0560
     71  CG        18.6990  -12.2940   19.7530 C.ar  198  TYR198     -0.0198
     72  CD1       19.2490  -11.7210   20.8990 C.ar  198  TYR198     -0.0009
     73  CD2       18.5590  -13.6870   19.7160 C.ar  198  TYR198     -0.0009
     74  CE1       19.6520  -12.4970   21.9820 C.ar  198  TYR198      0.0417
     75  CE2       18.9650  -14.4880   20.8040 C.ar  198  TYR198      0.0417
     76  CZ        19.5060  -13.8890   21.9240 C.ar  198  TYR198      0.1957
     77  OH        19.8990  -14.6470   22.9920 O.3   198  TYR198     -0.2866
     78  N          6.3720  -17.6990   21.0910 N.3   247  ILE247     -0.1245
     79  CA         7.3360  -17.4580   22.1670 C.3   247  ILE247      0.1561
     80  C          6.7310  -17.4310   23.5750 C.2   247  ILE247      0.2260
     81  O          7.3540  -16.9430   24.5350 O.2   247  ILE247     -0.2867
     82  CB         8.1130  -16.1480   21.9470 C.3   247  ILE247      0.0252
     83  CG1        7.1550  -14.9610   21.8410 C.3   247  ILE247      0.0019
     84  CG2        8.9460  -16.2510   20.6840 C.3   247  ILE247      0.0019
     85  CD1        7.8660  -13.6210   21.8710 C.3   247  ILE247      0.0001
     86  N          3.0980  -13.4730   27.2500 N.3   250  ALA250     -0.1245
     87  CA         3.7610  -12.2110   27.5610 C.3   250  ALA250      0.1562
     88  C          2.6090  -11.2230   27.6870 C.2   250  ALA250      0.2260
     89  O          1.8110  -11.1040   26.7690 O.2   250  ALA250     -0.2867
     90  CB         4.7110  -11.8030   26.4190 C.3   250  ALA250      0.0290
     91  N          5.1560   -7.3560   15.5210 N.3   268  THR268     -0.1218
     92  CA         6.4490   -7.1260   16.1720 C.3   268  THR268      0.1862
     93  C          7.5060   -7.9390   15.4320 C.2   268  THR268      0.2287
     94  O          7.3020   -9.1260   15.1500 O.2   268  THR268     -0.2866
     95  CB         6.4820   -7.5660   17.6570 C.3   268  THR268      0.1770
     96  OG1        6.1680   -8.9600   17.7610 O.3   268  THR268     -0.2211
     97  CG2        5.5000   -6.7710   18.4670 C.3   268  THR268      0.0375
     98  N         11.4510   -9.4140   15.4920 N.3   270  GLU270     -0.1245
     99  CA        12.5710   -9.7100   16.3820 C.3   270  GLU270      0.1567
    100  C         13.6590   -9.9730   15.3470 C.2   270  GLU270      0.2260
    101  O         13.6230  -10.9620   14.6270 O.2   270  GLU270     -0.2867
    102  CB        12.2940  -10.9420   17.2590 C.3   270  GLU270      0.0388
    103  CG        11.1070  -10.6330   18.1770 C.3   270  GLU270      0.1160
    104  CD        11.0180  -11.5050   19.4050 C.2   270  GLU270      0.3649
    105  OE1       10.1890  -11.1660   20.2800 O.co2 270  GLU270     -0.2457
    106  OE2       11.7550  -12.5050   19.5020 O.co2 270  GLU270     -0.2457
    107  N         22.4190  -10.1030   21.4980 N.3   279  PHE279     -0.1241
    108  CA        22.3370   -8.6430   21.5480 C.3   279  PHE279      0.1605
    109  C         23.6170   -7.9660   21.0400 C.2   279  PHE279      0.2264
    110  O         23.5910   -6.7910   20.6350 O.2   279  PHE279     -0.2867
    111  CB        22.0580   -8.1790   22.9850 C.3   279  PHE279      0.0534
    112  CG        20.8520   -8.8270   23.5920 C.ar  279  PHE279     -0.0203
    113  CD1       19.5780   -8.6150   23.0380 C.ar  279  PHE279     -0.0042
    114  CD2       20.9780   -9.6810   24.6790 C.ar  279  PHE279     -0.0042
    115  CE1       18.4590   -9.2650   23.5770 C.ar  279  PHE279     -0.0003
    116  CE2       19.8640  -10.3270   25.2160 C.ar  279  PHE279     -0.0003
    117  CZ        18.6100  -10.1210   24.6650 C.ar  279  PHE279     -0.0000
@<TRIPOS>BOND
     1   101   100    2
     2    94    93    2
     3   100    99    1
     4    93    92    1
     5    98    99    1
     6    91    92    1
     7    92    95    1
     8    99   102    1
     9    53    52    2
    10   102   103    1
    11    95    96    1
    12    95    97    1
    13    50    51    1
    14   103   104    1
    15    52    51    1
    16    52    60   am
    17    64    61    1
    18    64    65    1
    19    70    67    1
    20    70    71    1
    21    68    67    1
    22    68    69    2
    23    67    66    1
    24    61    60    1
    25    61    62    1
    26    51    54    1
    27   104   106   ar
    28   104   105   ar
    29    14    13    2
    30    54    55    1
    31    73    71   ar
    32    73    75   ar
    33    71    72   ar
    34    66    62   am
    35    62    63    2
    36    57    55   ar
    37    57    59   ar
    38    13    12    1
    39    55    56   ar
    40   110   109    2
    41    84    82    1
    42    75    76   ar
    43    72    74   ar
    44   109   108    1
    45    78    79    1
    46    15    12    1
    47    15    16    1
    48    59    58   ar
    49    12    11    1
    50   107   108    1
    51   108   111    1
    52    19    17   ar
    53    56    58   ar
    54    83    85    1
    55    83    82    1
    56    76    74   ar
    57    76    77    1
    58    82    79    1
    59    79    80    1
    60    16    17    1
    61    17    18   ar
    62   111   112    1
    63   113   115   ar
    64   113   112   ar
    65     4     3    2
    66    80    81    2
    67   115   117   ar
    68   112   114   ar
    69    38    36   am
    70     1     2    1
    71    37    36    2
    72    36    35    1
    73     3     2    1
    74   117   116   ar
    75   114   116   ar
    76     7     6   ar
    77     7     9   ar
    78     5     2    1
    79     5     6    1
    80     6     8   ar
    81     9    10   ar
    82    35    32    1
    83    90    87    1
    84     8    10   ar
    85    32    31    1
    86    32    33    1
    87    89    88    2
    88    29    28    1
    89    34    33    2
    90    86    87    1
    91    48    47    1
    92    87    88    1
    93    33    39   am
    94    30    28    1
    95    28    27    2
    96    49    47    1
    97    47    46    2
    98    23    22    2
    99    39    40    1
   100    25    26    1
   101    25    24    1
   102    27    26    1
   103    21    24    1
   104    21    22    1
   105    21    20    1
   106    46    45    1
   107    45    44    1
   108    40    41    1
   109    40    43    1
   110    44    43    1
   111    41    42    2
