@<TRIPOS>MOLECULE
tmp/1f58B00.pdb
 154 154 0 0 0
SMALL
GASTEIGER

@<TRIPOS>ATOM
      1  N         12.3330   51.6250   43.1370 N.3    33  TYR33      -0.1241
      2  CA        10.9730   51.6020   43.6580 C.3    33  TYR33       0.1605
      3  C         10.8440   52.4050   44.9580 C.2    33  TYR33       0.2264
      4  O          9.9110   53.2030   45.1360 O.2    33  TYR33      -0.2867
      5  CB        10.5570   50.1610   43.9210 C.3    33  TYR33       0.0534
      6  CG         9.2070   50.0490   44.5740 C.ar   33  TYR33      -0.0201
      7  CD1        8.0420   50.3400   43.8590 C.ar   33  TYR33      -0.0009
      8  CD2        9.0850   49.7260   45.9250 C.ar   33  TYR33      -0.0009
      9  CE1        6.8050   50.3250   44.4790 C.ar   33  TYR33       0.0417
     10  CE2        7.8400   49.7060   46.5460 C.ar   33  TYR33       0.0417
     11  CZ         6.7130   50.0120   45.8160 C.ar   33  TYR33       0.1957
     12  OH         5.4880   50.0380   46.4320 O.3    33  TYR33      -0.2866
     13  N         14.9610   53.0740   51.5190 N.3    36  HIS36      -0.1241
     14  CA        14.7310   52.9170   52.9520 C.3    36  HIS36       0.1621
     15  C         15.8380   53.2630   53.9580 C.2    36  HIS36       0.2264
     16  O         17.0120   53.2430   53.6400 O.2    36  HIS36      -0.2867
     17  CB        14.3920   51.4470   53.2180 C.3    36  HIS36       0.0745
     18  CG        13.2770   50.9050   52.3840 C.ar   36  HIS36       0.0817
     19  ND1       12.1010   50.4460   52.9320 N.ar   36  HIS36      -0.2268
     20  CD2       13.1680   50.7130   51.0460 C.ar   36  HIS36       0.1154
     21  CE1       11.3120   49.9990   51.9710 C.ar   36  HIS36       0.1986
     22  NE2       11.9360   50.1510   50.8180 N.ar   36  HIS36      -0.2212
     23  N         12.9640   48.9110   61.0720 N.3    48  TRP48      -0.1241
     24  CA        12.7750   49.6250   59.8130 C.3    48  TRP48       0.1605
     25  C         12.2750   51.0120   60.2090 C.2    48  TRP48       0.2264
     26  O         11.4200   51.1270   61.0800 O.2    48  TRP48      -0.2867
     27  CB        11.7290   48.8860   58.9620 C.3    48  TRP48       0.0550
     28  CG        11.2140   49.6610   57.7730 C.ar   48  TRP48       0.0003
     29  CD1       11.8250   49.8080   56.5550 C.ar   48  TRP48       0.0946
     30  CD2        9.9660   50.3580   57.6830 C.ar   48  TRP48       0.0152
     31  NE1       11.0260   50.5560   55.7210 N.ar   48  TRP48      -0.2442
     32  CE2        9.8800   50.8970   56.3850 C.ar   48  TRP48       0.0810
     33  CE3        8.9200   50.5840   58.5740 C.ar   48  TRP48       0.0012
     34  CZ2        8.7800   51.6440   55.9520 C.ar   48  TRP48       0.0191
     35  CZ3        7.8270   51.3340   58.1490 C.ar   48  TRP48       0.0001
     36  CH2        7.7680   51.8560   56.8450 C.ar   48  TRP48       0.0015
     37  N         10.5650   54.9780   54.3760 N.3    51  TYR51      -0.1241
     38  CA        11.0900   55.0830   53.0100 C.3    51  TYR51       0.1605
     39  C         10.4640   56.2020   52.1950 C.2    51  TYR51       0.2264
     40  O          9.4440   56.7810   52.5850 O.2    51  TYR51      -0.2867
     41  CB        10.9290   53.7620   52.2380 C.3    51  TYR51       0.0534
     42  CG         9.5040   53.3060   52.0040 C.ar   51  TYR51      -0.0201
     43  CD1        8.7990   53.6810   50.8600 C.ar   51  TYR51      -0.0009
     44  CD2        8.8810   52.4760   52.9090 C.ar   51  TYR51      -0.0009
     45  CE1        7.4940   53.2270   50.6280 C.ar   51  TYR51       0.0417
     46  CE2        7.5910   52.0090   52.6940 C.ar   51  TYR51       0.0417
     47  CZ         6.8960   52.3820   51.5500 C.ar   51  TYR51       0.1957
     48  OH         5.6260   51.8600   51.3490 O.3    51  TYR51      -0.2866
     49  N          9.2200   56.6820   48.4100 N.3    53  HIS53      -0.1241
     50  CA         8.7860   55.9200   47.2390 C.3    53  HIS53       0.1621
     51  C          9.1640   56.6460   45.9400 C.2    53  HIS53       0.2264
     52  O          9.5580   57.8050   45.9860 O.2    53  HIS53      -0.2867
     53  CB         7.2760   55.7450   47.4040 C.3    53  HIS53       0.0745
     54  CG         6.5860   55.0820   46.2660 C.ar   53  HIS53       0.0817
     55  ND1        5.8250   55.7880   45.3580 N.ar   53  HIS53      -0.2268
     56  CD2        6.3700   53.7720   45.9900 C.ar   53  HIS53       0.1154
     57  CE1        5.1620   54.9430   44.5880 C.ar   53  HIS53       0.1986
     58  NE2        5.4700   53.7190   44.9520 N.ar   53  HIS53      -0.2212
     59  N          7.4020   57.9440   43.7490 N.3    55  SER55      -0.1217
     60  CA         6.4890   59.0690   43.5670 C.3    55  SER55       0.1889
     61  C          6.9050   60.2460   44.4360 C.2    55  SER55       0.2288
     62  O          6.2870   61.2950   44.3700 O.2    55  SER55      -0.2866
     63  CB         5.0870   58.6580   44.0000 C.3    55  SER55       0.2089
     64  OG         5.0790   58.3170   45.3900 O.3    55  SER55      -0.2183
     65  N          6.5540   60.1710   47.5690 N.3    57  GLY57      -0.1210
     66  CA         5.7120   60.0830   48.7420 C.3    57  GLY57       0.1956
     67  C          6.5180   59.2890   49.7630 C.2    57  GLY57       0.2613
     68  O          7.4120   58.5190   49.3980 O.2    57  GLY57      -0.2717
     69  N          6.2120   59.4430   51.0390 N.am   58  THR58      -0.1938
     70  CA         6.9760   58.7400   52.0600 C.3    58  THR58       0.2028
     71  C          6.0600   57.9700   52.9920 C.2    58  THR58       0.2642
     72  O          4.8470   58.1960   52.9850 O.2    58  THR58      -0.2714
     73  CB         7.8060   59.7400   52.9210 C.3    58  THR58       0.1808
     74  OG1        6.9430   60.7200   53.4970 O.3    58  THR58      -0.2208
     75  CG2        8.8110   60.4730   52.0730 C.3    58  THR58       0.0379
     76  N          6.6210   56.9880   53.7040 N.am   59  ASN59      -0.1971
     77  CA         5.8630   56.2410   54.6990 C.3    59  ASN59       0.1688
     78  C          6.8210   55.9750   55.8340 C.2    59  ASN59       0.2292
     79  O          7.9690   55.6030   55.5990 O.2    59  ASN59      -0.2864
     80  CB         5.2850   54.9330   54.1770 C.3    59  ASN59       0.1181
     81  CG         4.3490   54.2890   55.1980 C.2    59  ASN59       0.2629
     82  OD1        3.4910   54.9490   55.7630 O.2    59  ASN59      -0.2716
     83  ND2        4.5790   53.0400   55.5020 N.am   59  ASN59      -0.0877
     84  N         14.9370   49.1120   47.5420 N.3    99  GLU99      -0.1245
     85  CA        13.9450   48.0700   47.3400 C.3    99  GLU99       0.1567
     86  C         13.8160   48.0550   45.8160 C.2    99  GLU99       0.2260
     87  O         13.5420   49.0940   45.2090 O.2    99  GLU99      -0.2867
     88  CB        12.5980   48.3950   47.9880 C.3    99  GLU99       0.0388
     89  CG        11.5930   47.2390   47.8580 C.3    99  GLU99       0.1160
     90  CD        10.4040   47.3910   48.7730 C.2    99  GLU99       0.3649
     91  OE1       10.1280   48.5440   49.1720 O.co2  99  GLU99      -0.2457
     92  OE2        9.7610   46.3670   49.1180 O.co2  99  GLU99      -0.2457
     93  N         10.5470   36.8790   39.6420 N.3   104  TYR104     -0.1241
     94  CA         9.7940   35.9300   40.4480 C.3   104  TYR104      0.1605
     95  C          8.9010   35.0300   39.5970 C.2   104  TYR104      0.2264
     96  O          8.3290   35.4740   38.5980 O.2   104  TYR104     -0.2867
     97  CB         8.9370   36.6950   41.4680 C.3   104  TYR104      0.0534
     98  CG         8.0330   35.8090   42.2800 C.ar  104  TYR104     -0.0201
     99  CD1        8.5510   34.9730   43.2630 C.ar  104  TYR104     -0.0009
    100  CD2        6.6660   35.7450   42.0150 C.ar  104  TYR104     -0.0009
    101  CE1        7.7260   34.0790   43.9590 C.ar  104  TYR104      0.0417
    102  CE2        5.8310   34.8550   42.7090 C.ar  104  TYR104      0.0417
    103  CZ         6.3680   34.0230   43.6720 C.ar  104  TYR104      0.1957
    104  OH         5.5640   33.1050   44.3140 O.3   104  TYR104     -0.2866
    105  N          7.8360   34.8990   34.8300 N.3   107  GLN107     -0.1231
    106  CA         7.8420   36.2630   34.3010 C.3   107  GLN107      0.1698
    107  C          7.0900   37.2800   35.1580 C.2   107  GLN107      0.2592
    108  O          6.3610   38.1340   34.6370 O.2   107  GLN107     -0.2718
    109  CB         7.3240   36.2850   32.8640 C.3   107  GLN107      0.0381
    110  CG         8.3850   35.9140   31.8570 C.3   107  GLN107      0.0905
    111  CD         7.8590   35.0010   30.7700 C.2   107  GLN107      0.2608
    112  OE1        8.5670   34.1110   30.3020 O.2   107  GLN107     -0.2717
    113  NE2        6.6120   35.2160   30.3590 N.am  107  GLN107     -0.0878
    114  N          7.2750   37.1790   36.4710 N.am  108  ALA108     -0.1966
    115  CA         6.6370   38.0800   37.4080 C.3   108  ALA108      0.1728
    116  C          7.7530   38.7770   38.1690 C.2   108  ALA108      0.2616
    117  O          8.9230   38.4840   37.9570 O.2   108  ALA108     -0.2715
    118  CB         5.7340   37.2950   38.3550 C.3   108  ALA108      0.0334
    119  N          7.4060   39.7660   38.9760 N.am  109  TYR109     -0.1960
    120  CA         8.4070   40.4790   39.7610 C.3   109  TYR109      0.1771
    121  C          7.9180   40.6160   41.1890 C.2   109  TYR109      0.2620
    122  O          6.7020   40.6410   41.4520 O.2   109  TYR109     -0.2715
    123  CB         8.7100   41.8560   39.1780 C.3   109  TYR109      0.0574
    124  CG         9.4470   41.8040   37.8690 C.ar  109  TYR109     -0.0198
    125  CD1       10.8230   41.6000   37.8310 C.ar  109  TYR109     -0.0009
    126  CD2        8.7630   41.9440   36.6600 C.ar  109  TYR109     -0.0009
    127  CE1       11.5070   41.5350   36.6210 C.ar  109  TYR109      0.0417
    128  CE2        9.4350   41.8790   35.4450 C.ar  109  TYR109      0.0417
    129  CZ        10.8050   41.6760   35.4310 C.ar  109  TYR109      0.1957
    130  OH        11.4720   41.6190   34.2270 O.3   109  TYR109     -0.2866
    131  N          8.8740   40.6890   42.1050 N.am  110  TYR110     -0.1960
    132  CA         8.5880   40.7830   43.5260 C.3   110  TYR110      0.1771
    133  C          9.5550   41.7890   44.1260 C.2   110  TYR110      0.2619
    134  O         10.7610   41.7100   43.8810 O.2   110  TYR110     -0.2715
    135  CB         8.7820   39.3990   44.1460 C.3   110  TYR110      0.0574
    136  CG         8.6430   39.3410   45.6410 C.ar  110  TYR110     -0.0198
    137  CD1        9.7190   39.6510   46.4620 C.ar  110  TYR110     -0.0009
    138  CD2        7.4640   38.9230   46.2280 C.ar  110  TYR110     -0.0009
    139  CE1        9.6320   39.5340   47.8180 C.ar  110  TYR110      0.0417
    140  CE2        7.3580   38.8080   47.6100 C.ar  110  TYR110      0.0417
    141  CZ         8.4630   39.1130   48.3950 C.ar  110  TYR110      0.1957
    142  OH         8.4090   38.9630   49.7590 O.3   110  TYR110     -0.2866
    143  N          9.0320   42.7430   44.8880 N.am  111  TYR111     -0.1974
    144  CA         9.8690   43.7760   45.4870 C.3   111  TYR111      0.1639
    145  C         10.5530   43.3300   46.7710 C.2   111  TYR111      0.2290
    146  O          9.9000   42.7900   47.6640 O.2   111  TYR111     -0.2864
    147  CB         9.0320   45.0260   45.7760 C.3   111  TYR111      0.0560
    148  CG         8.7360   45.8340   44.5530 C.ar  111  TYR111     -0.0198
    149  CD1        9.7640   46.2700   43.7300 C.ar  111  TYR111     -0.0009
    150  CD2        7.4240   46.1250   44.1890 C.ar  111  TYR111     -0.0009
    151  CE1        9.5000   46.9670   42.5670 C.ar  111  TYR111      0.0417
    152  CE2        7.1460   46.8320   43.0250 C.ar  111  TYR111      0.0417
    153  CZ         8.1910   47.2450   42.2220 C.ar  111  TYR111      0.1957
    154  OH         7.9360   47.9530   41.0750 O.3   111  TYR111     -0.2866
@<TRIPOS>BOND
     1   112   111    2
     2   113   111   am
     3   111   110    1
     4   110   109    1
     5   109   106    1
     6   130   129    1
     7   106   105    1
     8   106   107    1
     9   108   107    2
    10   107   114   am
    11   129   128   ar
    12   129   127   ar
    13   128   126   ar
    14   114   115    1
    15   127   125   ar
    16   126   124   ar
    17   115   116    1
    18   115   118    1
    19   125   124   ar
    20   124   123    1
    21   117   116    2
    22   116   119   am
    23    96    95    2
    24   119   120    1
    25   123   120    1
    26    95    94    1
    27    93    94    1
    28   120   121    1
    29    94    97    1
    30   154   153    1
    31   121   122    2
    32   121   131   am
    33    97    98    1
    34   100    98   ar
    35   100   102   ar
    36   131   132    1
    37   153   151   ar
    38   153   152   ar
    39    98    99   ar
    40   151   149   ar
    41   102   103   ar
    42   152   150   ar
    43     1     2    1
    44    99   101   ar
    45   132   133    1
    46   132   135    1
    47    60    59    1
    48    60    63    1
    49    60    61    1
    50     2     5    1
    51     2     3    1
    52   103   101   ar
    53   103   104    1
    54   149   148   ar
    55     7     9   ar
    56     7     6   ar
    57   134   133    2
    58     5     6    1
    59    63    64    1
    60   133   143   am
    61   135   136    1
    62   150   148   ar
    63    62    61    2
    64     9    11   ar
    65   148   147    1
    66     6     8   ar
    67    57    58   ar
    68    57    55   ar
    69   143   144    1
    70    58    56   ar
    71     3     4    2
    72    87    86    2
    73    55    54   ar
    74   144   147    1
    75   144   145    1
    76   136   138   ar
    77   136   137   ar
    78    11    12    1
    79    11    10   ar
    80    86    85    1
    81     8    10   ar
    82    51    52    2
    83    51    50    1
    84    56    54   ar
    85   138   140   ar
    86    54    53    1
    87   137   139   ar
    88   145   146    2
    89    50    53    1
    90    50    49    1
    91    85    84    1
    92    85    88    1
    93    65    66    1
    94   140   141   ar
    95   139   141   ar
    96    89    88    1
    97    89    90    1
    98   141   142    1
    99    66    67    1
   100    90    92   ar
   101    90    91   ar
   102    68    67    2
   103    67    69   am
   104    45    43   ar
   105    45    47   ar
   106    22    20   ar
   107    22    21   ar
   108    43    42   ar
   109    69    70    1
   110    20    18   ar
   111    48    47    1
   112    13    14    1
   113    47    46   ar
   114    21    19   ar
   115    42    41    1
   116    42    44   ar
   117    70    73    1
   118    70    71    1
   119    75    73    1
   120    39    40    2
   121    39    38    1
   122    41    38    1
   123    18    19   ar
   124    18    17    1
   125    46    44   ar
   126    73    74    1
   127    14    17    1
   128    14    15    1
   129    72    71    2
   130    71    76   am
   131    38    37    1
   132    16    15    2
   133    76    77    1
   134    80    77    1
   135    80    81    1
   136    77    78    1
   137    81    83   am
   138    81    82    2
   139    79    78    2
   140    31    32   ar
   141    31    29   ar
   142    34    32   ar
   143    34    36   ar
   144    32    30   ar
   145    29    28   ar
   146    36    35   ar
   147    30    28   ar
   148    30    33   ar
   149    28    27    1
   150    35    33   ar
   151    27    24    1
   152    24    25    1
   153    24    23    1
   154    25    26    2
