@<TRIPOS>MOLECULE
tmp/1f58A00.pdb
 80 79 0 0 0
SMALL
GASTEIGER

@<TRIPOS>ATOM
      1  N         -0.5890   36.5310   49.8020 N.3    31  PHE31      -0.1227
      2  CA        -1.5100   37.4120   49.0900 C.3    31  PHE31       0.1736
      3  C         -1.3530   37.3180   47.5990 C.2    31  PHE31       0.2595
      4  O         -0.2420   37.3600   47.0790 O.2    31  PHE31      -0.2718
      5  CB        -1.3630   38.8890   49.5080 C.3    31  PHE31       0.0547
      6  CG        -2.2310   39.8500   48.7070 C.ar   31  PHE31      -0.0202
      7  CD1       -3.5640   40.0630   49.0520 C.ar   31  PHE31      -0.0042
      8  CD2       -1.7160   40.5300   47.6050 C.ar   31  PHE31      -0.0042
      9  CE1       -4.3730   40.9380   48.3050 C.ar   31  PHE31      -0.0003
     10  CE2       -2.5050   41.3950   46.8650 C.ar   31  PHE31      -0.0003
     11  CZ        -3.8400   41.5990   47.2140 C.ar   31  PHE31      -0.0000
     12  N         -2.4760   37.0820   46.9310 N.am   32  ASP32      -0.1960
     13  CA        -2.5370   37.0510   45.4790 C.3    32  ASP32       0.1840
     14  C         -1.3810   36.3420   44.7540 C.2    32  ASP32       0.2623
     15  O         -0.8140   36.8840   43.8130 O.2    32  ASP32      -0.2715
     16  CB        -2.6410   38.5100   45.0190 C.3    32  ASP32       0.1450
     17  CG        -3.0840   38.6630   43.5780 C.2    32  ASP32       0.3671
     18  OD1       -3.7640   37.7570   43.0440 O.co2  32  ASP32      -0.2456
     19  OD2       -2.7450   39.7140   42.9910 O.co2  32  ASP32      -0.2456
     20  N         -1.0260   35.1380   45.1860 N.am   33  GLY33      -0.1940
     21  CA         0.0470   34.4190   44.5180 C.3    33  GLY33       0.2014
     22  C          1.4750   34.6260   45.0110 C.2    33  GLY33       0.2638
     23  O          2.4250   34.3860   44.2600 O.2    33  GLY33      -0.2714
     24  N          1.6500   35.1430   46.2240 N.am   34  ALA34      -0.1977
     25  CA         2.9920   35.2950   46.7780 C.3    34  ALA34       0.1597
     26  C          2.9550   35.3070   48.2930 C.2    34  ALA34       0.2287
     27  O          1.9470   35.6760   48.8980 O.2    34  ALA34      -0.2864
     28  CB         3.6770   36.5520   46.2510 C.3    34  ALA34       0.0319
     29  N          4.9390   36.8890   51.2570 N.3    36  PHE36      -0.1241
     30  CA         5.8510   38.0040   51.4560 C.3    36  PHE36       0.1605
     31  C          6.7930   37.8390   52.6370 C.2    36  PHE36       0.2264
     32  O          6.7520   38.6240   53.5900 O.2    36  PHE36      -0.2867
     33  CB         5.0380   39.2990   51.5730 C.3    36  PHE36       0.0534
     34  CG         4.2970   39.6650   50.3040 C.ar   36  PHE36      -0.0203
     35  CD1        3.0730   39.0860   50.0020 C.ar   36  PHE36      -0.0042
     36  CD2        4.8680   40.5110   49.3820 C.ar   36  PHE36      -0.0042
     37  CE1        2.4360   39.3420   48.7780 C.ar   36  PHE36      -0.0003
     38  CE2        4.2380   40.7710   48.1580 C.ar   36  PHE36      -0.0003
     39  CZ         3.0250   40.1830   47.8580 C.ar   36  PHE36      -0.0000
     40  N          7.1650   41.5840   54.1270 N.3    95  SER95      -0.1202
     41  CA         6.8880   42.7050   53.2300 C.3    95  SER95       0.2020
     42  C          5.4070   42.7240   52.8460 C.2    95  SER95       0.2619
     43  O          5.0310   43.3250   51.8350 O.2    95  SER95      -0.2717
     44  CB         7.7010   42.5620   51.9320 C.3    95  SER95       0.2103
     45  OG         9.0760   42.7910   52.1490 O.3    95  SER95      -0.2182
     46  N          4.5750   42.0860   53.6600 N.am   96  HIS96      -0.1961
     47  CA         3.1320   42.0140   53.4310 C.3    96  HIS96       0.1787
     48  C          2.4650   43.3640   53.6530 C.2    96  HIS96       0.2620
     49  O          1.4720   43.6780   53.0050 O.2    96  HIS96      -0.2715
     50  CB         2.5220   40.9610   54.3670 C.3    96  HIS96       0.0785
     51  CG         1.0460   40.7570   54.1950 C.ar   96  HIS96       0.0821
     52  ND1        0.5210   39.8310   53.3190 N.ar   96  HIS96      -0.2267
     53  CD2       -0.0120   41.3150   54.8280 C.ar   96  HIS96       0.1154
     54  CE1       -0.7960   39.8210   53.4250 C.ar   96  HIS96       0.1986
     55  NE2       -1.1440   40.7140   54.3330 N.ar   96  HIS96      -0.2212
     56  N          3.0000   44.1500   54.5790 N.am   97  GLU97      -0.1963
     57  CA         2.4480   45.4560   54.8870 C.3    97  GLU97       0.1733
     58  C          3.4950   46.3420   55.5380 C.2    97  GLU97       0.2616
     59  O          4.5330   45.8620   55.9660 O.2    97  GLU97      -0.2715
     60  CB         1.3100   45.3150   55.9050 C.3    97  GLU97       0.0429
     61  CG         1.7940   44.8820   57.2820 C.3    97  GLU97       0.1163
     62  CD         0.7210   44.9290   58.3670 C.2    97  GLU97       0.3649
     63  OE1       -0.4110   44.4760   58.1210 O.co2  97  GLU97      -0.2457
     64  OE2        1.0290   45.3840   59.4950 O.co2  97  GLU97      -0.2457
     65  N          3.1960   47.6330   55.6200 N.am   98  ASP98      -0.1971
     66  CA         4.0480   48.5850   56.3060 C.3    98  ASP98       0.1709
     67  C          3.3840   48.7190   57.6650 C.2    98  ASP98       0.2293
     68  O          2.1490   48.7700   57.7180 O.2    98  ASP98      -0.2864
     69  CB         4.0280   49.9410   55.6170 C.3    98  ASP98       0.1436
     70  CG         4.7890   49.9360   54.3350 C.2    98  ASP98       0.3671
     71  OD1        5.7620   49.1680   54.2470 O.co2  98  ASP98      -0.2456
     72  OD2        4.4340   50.7010   53.4160 O.co2  98  ASP98      -0.2456
     73  N          7.3060   47.4430   57.7300 N.3   100  LEU100     -0.1245
     74  CA         8.0430   46.2250   57.4260 C.3   100  LEU100      0.1561
     75  C          8.6880   45.8340   58.7580 C.2   100  LEU100      0.2260
     76  O          9.1190   46.7000   59.5210 O.2   100  LEU100     -0.2867
     77  CB         9.1200   46.5040   56.3780 C.3   100  LEU100      0.0270
     78  CG         8.6260   47.0650   55.0450 C.3   100  LEU100      0.0019
     79  CD1        9.7730   47.3650   54.1640 C.3   100  LEU100      0.0001
     80  CD2        7.7560   46.0540   54.3630 C.3   100  LEU100      0.0001
@<TRIPOS>BOND
     1    19    17   ar
     2    18    17   ar
     3    17    16    1
     4    15    14    2
     5    23    22    2
     6    21    22    1
     7    21    20    1
     8    14    20   am
     9    14    13    1
    10    22    24   am
    11    16    13    1
    12    13    12    1
    13    24    25    1
    14    28    25    1
    15    25    26    1
    16    10    11   ar
    17    10     8   ar
    18    12     3   am
    19     4     3    2
    20    11     9   ar
    21     3     2    1
    22     8     6   ar
    23    39    38   ar
    24    39    37   ar
    25    38    36   ar
    26    26    27    2
    27     9     7   ar
    28     6     7   ar
    29     6     5    1
    30    37    35   ar
    31     2     5    1
    32     2     1    1
    33    36    34   ar
    34    35    34   ar
    35    34    33    1
    36    29    30    1
    37    30    33    1
    38    30    31    1
    39    43    42    2
    40    44    45    1
    41    44    41    1
    42    31    32    2
    43    42    41    1
    44    42    46   am
    45    49    48    2
    46    41    40    1
    47    52    54   ar
    48    52    51   ar
    49    72    70   ar
    50    54    55   ar
    51    47    48    1
    52    47    46    1
    53    47    50    1
    54    48    56   am
    55    79    78    1
    56    51    50    1
    57    51    53   ar
    58    71    70   ar
    59    55    53   ar
    60    70    69    1
    61    80    78    1
    62    56    57    1
    63    57    58    1
    64    57    60    1
    65    78    77    1
    66    58    65   am
    67    58    59    2
    68    69    66    1
    69    65    66    1
    70    60    61    1
    71    66    67    1
    72    77    74    1
    73    61    62    1
    74    74    73    1
    75    74    75    1
    76    67    68    2
    77    63    62   ar
    78    62    64   ar
    79    75    76    2
