@<TRIPOS>MOLECULE
tmp/1f5lA00.pdb
 110 107 0 0 0
SMALL
GASTEIGER

@<TRIPOS>ATOM
      1  N         22.4050    9.1930   37.2210 N.3    46  HIS46      -0.1241
      2  CA        22.7870   10.3300   36.3750 C.3    46  HIS46       0.1621
      3  C         21.8950   10.5280   35.1570 C.2    46  HIS46       0.2264
      4  O         21.8870   11.6050   34.5590 O.2    46  HIS46      -0.2867
      5  CB        24.2800   10.2830   35.9890 C.3    46  HIS46       0.0745
      6  CG        24.5800    9.5540   34.7100 C.ar   46  HIS46       0.0817
      7  ND1       25.2310    8.3400   34.6830 N.ar   46  HIS46      -0.2268
      8  CD2       24.3890    9.9050   33.4150 C.ar   46  HIS46       0.1154
      9  CE1       25.4330    7.9750   33.4290 C.ar   46  HIS46       0.1986
     10  NE2       24.9310    8.9070   32.6400 N.ar   46  HIS46      -0.2212
     11  N         33.7350   -0.9020   22.9480 N.3   192  ASP192     -0.1225
     12  CA        33.4460   -0.3020   24.2500 C.3   192  ASP192      0.1805
     13  C         32.0360    0.2910   24.2760 C.2   192  ASP192      0.2598
     14  O         31.3870    0.4220   23.2370 O.2   192  ASP192     -0.2718
     15  CB        34.4650    0.8330   24.4740 C.3   192  ASP192      0.1424
     16  CG        34.5300    1.3290   25.9140 C.2   192  ASP192      0.3668
     17  OD1       33.9110    0.7460   26.8360 O.co2 192  ASP192     -0.2456
     18  OD2       35.2470    2.3230   26.1190 O.co2 192  ASP192     -0.2456
     19  N         31.5490    0.6050   25.4740 N.am  193  SER193     -0.1938
     20  CA        30.2520    1.2610   25.6160 C.3   193  SER193      0.2055
     21  C         30.5270    2.7470   25.3400 C.2   193  SER193      0.2643
     22  O         31.6810    3.1830   25.3960 O.2   193  SER193     -0.2714
     23  CB        29.6870    1.0590   27.0280 C.3   193  SER193      0.2130
     24  OG        30.6430    1.3510   28.0300 O.3   193  SER193     -0.2179
     25  N         29.4890    3.5140   25.0150 N.am  194  CYS194     -0.1953
     26  CA        29.6560    4.9310   24.7150 C.3   194  CYS194      0.1843
     27  C         28.4390    5.7260   25.1980 C.2   194  CYS194      0.2625
     28  O         27.5680    5.1820   25.8880 O.2   194  CYS194     -0.2714
     29  CB        29.8480    5.1150   23.2040 C.3   194  CYS194      0.0997
     30  SG        30.5930    6.7040   22.6890 S.3   194  CYS194     -0.0797
     31  N         28.4000    7.0160   24.8700 N.am  195  GLN195     -0.1963
     32  CA        27.2710    7.8680   25.2510 C.3   195  GLN195      0.1733
     33  C         25.9760    7.2310   24.7340 C.2   195  GLN195      0.2616
     34  O         25.8790    6.8830   23.5560 O.2   195  GLN195     -0.2715
     35  CB        27.4310    9.2640   24.6480 C.3   195  GLN195      0.0408
     36  CG        26.2860   10.2150   24.9700 C.3   195  GLN195      0.0908
     37  CD        26.2590   11.4260   24.0590 C.2   195  GLN195      0.2608
     38  OE1       27.2760   12.0900   23.8550 O.2   195  GLN195     -0.2717
     39  NE2       25.0880   11.7140   23.4970 N.am  195  GLN195     -0.0878
     40  N         24.9880    7.0890   25.6150 N.am  196  GLY196     -0.1955
     41  CA        23.7310    6.4690   25.2230 C.3   196  GLY196      0.1869
     42  C         23.5830    5.0750   25.8180 C.2   196  GLY196      0.2309
     43  O         22.4690    4.5960   26.0180 O.2   196  GLY196     -0.2863
     44  N         24.6770    4.3130   28.7910 N.3   198  SER198     -0.1217
     45  CA        24.5490    4.4970   30.2370 C.3   198  SER198      0.1889
     46  C         23.2930    3.8690   30.8320 C.2   198  SER198      0.2288
     47  O         22.2230    3.8970   30.2310 O.2   198  SER198     -0.2866
     48  CB        24.5810    5.9870   30.5870 C.3   198  SER198      0.2089
     49  OG        25.8510    6.5490   30.3060 O.3   198  SER198     -0.2183
     50  N         26.4270    0.4890   33.3410 N.3   216  VAL216     -0.1231
     51  CA        27.2410    1.4460   32.5900 C.3   216  VAL216      0.1692
     52  C         27.1180    2.8130   33.2560 C.2   216  VAL216      0.2593
     53  O         26.0230    3.3650   33.3640 O.2   216  VAL216     -0.2718
     54  CB        26.7950    1.5370   31.1120 C.3   216  VAL216      0.0266
     55  CG1       27.7230    2.4660   30.3340 C.3   216  VAL216      0.0020
     56  CG2       26.7960    0.1650   30.4830 C.3   216  VAL216      0.0020
     57  N         28.2450    3.3560   33.7060 N.am  217  SER217     -0.1938
     58  CA        28.2390    4.6350   34.4050 C.3   217  SER217      0.2055
     59  C         29.0220    5.7630   33.7370 C.2   217  SER217      0.2643
     60  O         28.4570    6.8170   33.4570 O.2   217  SER217     -0.2714
     61  CB        28.7240    4.4390   35.8470 C.3   217  SER217      0.2130
     62  OG        28.6330    5.6420   36.5890 O.3   217  SER217     -0.2179
     63  N         30.3170    5.5580   33.5050 N.am  218  TRP218     -0.1959
     64  CA        31.1390    6.5990   32.8890 C.3   218  TRP218      0.1771
     65  C         32.4220    6.1240   32.2170 C.2   218  TRP218      0.2620
     66  O         32.7700    4.9410   32.2590 O.2   218  TRP218     -0.2715
     67  CB        31.4780    7.6840   33.9160 C.3   218  TRP218      0.0590
     68  CG        32.2730    7.2040   35.0960 C.ar  218  TRP218      0.0006
     69  CD1       31.7840    6.6030   36.2280 C.ar  218  TRP218      0.0946
     70  CD2       33.6860    7.3530   35.3010 C.ar  218  TRP218      0.0152
     71  NE1       32.8050    6.3830   37.1270 N.ar  218  TRP218     -0.2442
     72  CE2       33.9810    6.8320   36.5830 C.ar  218  TRP218      0.0810
     73  CE3       34.7320    7.8790   34.5260 C.ar  218  TRP218      0.0012
     74  CZ2       35.2800    6.8220   37.1090 C.ar  218  TRP218      0.0191
     75  CZ3       36.0270    7.8690   35.0500 C.ar  218  TRP218      0.0001
     76  CH2       36.2880    7.3450   36.3290 C.ar  218  TRP218      0.0015
     77  N         33.1070    7.0720   31.5840 N.am  219  GLY219     -0.1954
     78  CA        34.3560    6.7960   30.8980 C.3   219  GLY219      0.1869
     79  C         34.8420    8.0130   30.1290 C.2   219  GLY219      0.2309
     80  O         34.0460    8.8810   29.7660 O.2   219  GLY219     -0.2863
     81  N         35.8130    9.5240   26.9490 N.3   221  GLY221     -0.1210
     82  CA        35.6260    9.2180   25.5420 C.3   221  GLY221      0.1956
     83  C         35.0670    7.8140   25.3890 C.2   221  GLY221      0.2612
     84  O         34.4930    7.2660   26.3360 O.2   221  GLY221     -0.2717
     85  N         35.2620    7.2130   24.2180 N.am  222  CYS222     -0.1970
     86  CA        34.7680    5.8580   23.9540 C.3   222  CYS222      0.1712
     87  C         35.7910    5.0360   23.1740 C.2   222  CYS222      0.2296
     88  O         36.2190    5.4280   22.0850 O.2   222  CYS222     -0.2864
     89  CB        33.4600    5.9110   23.1760 C.3   222  CYS222      0.0983
     90  SG        32.1540    6.9150   23.9580 S.3   222  CYS222     -0.0798
     91  N         41.6350    3.8900   28.6710 N.3   227  LYS227     -0.1245
     92  CA        40.4840    4.5760   29.2490 C.3   227  LYS227      0.1561
     93  C         39.3010    3.6070   29.2300 C.2   227  LYS227      0.2260
     94  O         38.4160    3.6980   28.3800 O.2   227  LYS227     -0.2867
     95  CB        40.1650    5.8520   28.4550 C.3   227  LYS227      0.0271
     96  CG        41.3250    6.8360   28.3790 C.3   227  LYS227      0.0035
     97  CD        41.7490    7.2880   29.7710 C.3   227  LYS227      0.0206
     98  CE        43.0950    8.0000   29.7430 C.3   227  LYS227      0.1093
     99  NZ        43.5420    8.3960   31.1110 N.3   227  LYS227     -0.1314
    100  N         35.8140    1.4400   30.3790 N.3   229  GLY229     -0.1210
    101  CA        34.4880    1.8630   30.7560 C.3   229  GLY229      0.1956
    102  C         34.3980    1.6070   32.2440 C.2   229  GLY229      0.2611
    103  O         35.0040    0.6560   32.7460 O.2   229  GLY229     -0.2717
    104  N         33.7050    2.4790   32.9650 N.am  230  VAL230     -0.1979
    105  CA        33.5450    2.3060   34.4010 C.3   230  VAL230      0.1595
    106  C         32.0900    1.9710   34.6880 C.2   230  VAL230      0.2287
    107  O         31.1720    2.5900   34.1470 O.2   230  VAL230     -0.2864
    108  CB        33.9730    3.5580   35.1810 C.3   230  VAL230      0.0276
    109  CG1       33.9490    3.2660   36.6750 C.3   230  VAL230      0.0022
    110  CG2       35.3610    3.9950   34.7370 C.3   230  VAL230      0.0022
@<TRIPOS>BOND
     1    88    87    2
     2    30    29    1
     3    30    90    1
     4    11    12    1
     5    87    86    1
     6    89    86    1
     7    89    90    1
     8    29    26    1
     9    14    13    2
    10    39    37   am
    11    34    33    2
    12    38    37    2
    13    86    85    1
    14    37    36    1
    15    85    83   am
    16    12    13    1
    17    12    15    1
    18    13    19   am
    19    15    16    1
    20    35    36    1
    21    35    32    1
    22    26    25    1
    23    26    27    1
    24    33    32    1
    25    33    40   am
    26    31    27   am
    27    31    32    1
    28    25    21   am
    29    27    28    2
    30    41    40    1
    31    41    42    1
    32    21    22    2
    33    21    20    1
    34    83    82    1
    35    83    84    2
    36    19    20    1
    37    82    81    1
    38    20    23    1
    39    42    43    2
    40    16    18   ar
    41    16    17   ar
    42    23    24    1
    43    96    95    1
    44    96    97    1
    45    94    93    2
    46    95    92    1
    47    91    92    1
    48    44    45    1
    49    93    92    1
    50    98    97    1
    51    98    99    1
    52    80    79    2
    53    79    78    1
    54    47    46    2
    55    45    48    1
    56    45    46    1
    57    49    48    1
    58    55    54    1
    59   100   101    1
    60    56    54    1
    61   101   102    1
    62    78    77    1
    63    54    51    1
    64    77    65   am
    65    65    66    2
    66    65    64    1
    67   102   103    2
    68   102   104   am
    69    51    52    1
    70    51    50    1
    71    10     8   ar
    72    10     9   ar
    73    64    63    1
    74    64    67    1
    75   104   105    1
    76    52    53    2
    77    52    57   am
    78     8     6   ar
    79     9     7   ar
    80    60    59    2
    81    63    59   am
    82    57    58    1
    83    59    58    1
    84    67    68    1
    85   107   106    2
    86   105   106    1
    87   105   108    1
    88    58    61    1
    89    73    75   ar
    90    73    70   ar
    91     4     3    2
    92     7     6   ar
    93     6     5    1
    94   110   108    1
    95    75    76   ar
    96    68    70   ar
    97    68    69   ar
    98     3     2    1
    99   108   109    1
   100    70    72   ar
   101    61    62    1
   102     5     2    1
   103    69    71   ar
   104    76    74   ar
   105     2     1    1
   106    72    74   ar
   107    72    71   ar
