@<TRIPOS>MOLECULE
tmp/1f5nA00.pdb
 229 223 0 0 0
SMALL
GASTEIGER

@<TRIPOS>ATOM
      1  N         75.6290   -5.1660   33.0400 N.3    41  TYR41      -0.1227
      2  CA        76.6440   -6.0660   32.5160 C.3    41  TYR41       0.1736
      3  C         76.8560   -7.2270   33.4890 C.2    41  TYR41       0.2595
      4  O         76.5550   -7.1090   34.6710 O.2    41  TYR41      -0.2718
      5  CB        77.9590   -5.3050   32.2930 C.3    41  TYR41       0.0548
      6  CG        78.7000   -4.9100   33.5500 C.ar   41  TYR41      -0.0200
      7  CD1       79.7890   -5.6580   34.0010 C.ar   41  TYR41      -0.0009
      8  CD2       78.3330   -3.7800   34.2760 C.ar   41  TYR41      -0.0009
      9  CE1       80.4970   -5.2890   35.1400 C.ar   41  TYR41       0.0417
     10  CE2       79.0360   -3.3990   35.4230 C.ar   41  TYR41       0.0417
     11  CZ        80.1170   -4.1600   35.8470 C.ar   41  TYR41       0.1957
     12  OH        80.8250   -3.7930   36.9700 O.3    41  TYR41      -0.2866
     13  N         77.3570   -8.3430   32.9690 N.am   42  ARG42      -0.1966
     14  CA        77.6290   -9.5480   33.7560 C.3    42  ARG42       0.1729
     15  C         76.4050  -10.1590   34.4460 C.2    42  ARG42       0.2617
     16  O         76.5180  -10.7140   35.5470 O.2    42  ARG42      -0.2715
     17  CB        78.7200   -9.2730   34.8060 C.3    42  ARG42       0.0348
     18  CG        78.2020   -8.6530   36.1010 C.3    42  ARG42       0.0492
     19  CD        79.3090   -8.2890   37.0670 C.3    42  ARG42       0.2205
     20  NE        78.7810   -7.6930   38.2920 N.pl3  42  ARG42      -0.0865
     21  CZ        77.9790   -6.6310   38.3270 C.cat  42  ARG42       0.5346
     22  NH1       77.6010   -6.0370   37.2010 N.pl3  42  ARG42       0.1354
     23  NH2       77.5580   -6.1550   39.4940 N.pl3  42  ARG42       0.1354
     24  N         75.2380  -10.0740   33.8110 N.am   43  THR43      -0.1937
     25  CA        74.0350  -10.6560   34.4110 C.3    43  THR43       0.2028
     26  C         73.5260  -11.8750   33.6540 C.2    43  THR43       0.2643
     27  O         72.4090  -12.3320   33.8900 O.2    43  THR43      -0.2714
     28  CB        72.8840   -9.6210   34.5420 C.3    43  THR43       0.1808
     29  OG1       72.6230   -9.0020   33.2700 O.3    43  THR43      -0.2208
     30  CG2       73.2570   -8.5600   35.5610 C.3    43  THR43       0.0379
     31  N         74.3560  -12.3970   32.7560 N.am   44  GLY44      -0.1939
     32  CA        73.9870  -13.5750   31.9890 C.3    44  GLY44       0.2014
     33  C         73.0510  -13.3330   30.8180 C.2    44  GLY44       0.2639
     34  O         72.2850  -14.2180   30.4270 O.2    44  GLY44      -0.2714
     35  N         73.0970  -12.1360   30.2450 N.am   45  LYS45      -0.1963
     36  CA        72.2400  -11.8300   29.1080 C.3    45  LYS45       0.1728
     37  C         72.5930  -12.6460   27.8670 C.2    45  LYS45       0.2617
     38  O         71.7220  -13.2710   27.2530 O.2    45  LYS45      -0.2715
     39  CB        72.3200  -10.3330   28.7760 C.3    45  LYS45       0.0311
     40  CG        71.7200   -9.4550   29.8560 C.3    45  LYS45       0.0038
     41  CD        71.6850   -7.9810   29.4340 C.3    45  LYS45       0.0206
     42  CE        73.0670   -7.4850   29.0290 C.3    45  LYS45       0.1093
     43  NZ        74.0650   -7.6650   30.1150 N.3    45  LYS45      -0.1314
     44  N         73.8660  -12.6300   27.4860 N.am   46  SER46      -0.1936
     45  CA        74.3050  -13.3600   26.3090 C.3    46  SER46       0.2055
     46  C         74.0250  -14.8500   26.4670 C.2    46  SER46       0.2643
     47  O         73.5700  -15.4980   25.5340 O.2    46  SER46      -0.2714
     48  CB        75.7860  -13.1020   26.0570 C.3    46  SER46       0.2130
     49  OG        75.9620  -11.7550   25.6240 O.3    46  SER46      -0.2179
     50  N         74.2690  -15.3720   27.6610 N.am   47  TYR47      -0.1973
     51  CA        74.0270  -16.7880   27.9430 C.3    47  TYR47       0.1639
     52  C         72.5600  -17.1520   27.6940 C.2    47  TYR47       0.2290
     53  O         72.2480  -18.1770   27.0700 O.2    47  TYR47      -0.2864
     54  CB        74.3790  -17.0760   29.4000 C.3    47  TYR47       0.0560
     55  CG        74.0670  -18.4890   29.8450 C.ar   47  TYR47      -0.0198
     56  CD1       74.8630  -19.5610   29.4460 C.ar   47  TYR47      -0.0009
     57  CD2       72.9840  -18.7450   30.6750 C.ar   47  TYR47      -0.0009
     58  CE1       74.5820  -20.8620   29.8750 C.ar   47  TYR47       0.0417
     59  CE2       72.6930  -20.0360   31.1070 C.ar   47  TYR47       0.0417
     60  CZ        73.4950  -21.0880   30.7040 C.ar   47  TYR47       0.1957
     61  OH        73.1900  -22.3650   31.1320 O.3    47  TYR47      -0.2866
     62  N         79.1430  -14.4040   22.2460 N.3    60  SER60      -0.1202
     63  CA        80.2540  -14.6610   23.1600 C.3    60  SER60       0.2020
     64  C         79.9280  -14.2740   24.5960 C.2    60  SER60       0.2619
     65  O         79.2270  -13.2870   24.8410 O.2    60  SER60      -0.2717
     66  CB        81.5110  -13.9230   22.6880 C.3    60  SER60       0.2103
     67  OG        81.2420  -12.5600   22.4400 O.3    60  SER60      -0.2182
     68  N         80.4340  -15.0590   25.5430 N.am   61  LEU61      -0.1965
     69  CA        80.1980  -14.8100   26.9570 C.3    61  LEU61       0.1728
     70  C         81.4030  -14.1910   27.6470 C.2    61  LEU61       0.2617
     71  O         82.5540  -14.3940   27.2370 O.2    61  LEU61      -0.2715
     72  CB        79.8510  -16.1110   27.6850 C.3    61  LEU61       0.0311
     73  CG        78.7720  -17.0150   27.0910 C.3    61  LEU61       0.0022
     74  CD1       78.4620  -18.1210   28.0920 C.3    61  LEU61       0.0001
     75  CD2       77.5160  -16.2120   26.7830 C.3    61  LEU61       0.0001
     76  N         81.1260  -13.4520   28.7120 N.am   62  GLY62      -0.1940
     77  CA        82.1800  -12.8220   29.4770 C.3    62  GLY62       0.2014
     78  C         82.3100  -13.5470   30.7970 C.2    62  GLY62       0.2640
     79  O         81.8270  -14.6710   30.9450 O.2    62  GLY62      -0.2714
     80  N         82.9540  -12.9070   31.7630 N.am   63  SER63      -0.1935
     81  CA        83.1270  -13.5030   33.0780 C.3    63  SER63       0.2055
     82  C         82.0500  -12.9500   33.9970 C.2    63  SER63       0.2643
     83  O         81.1760  -12.1990   33.5630 O.2    63  SER63      -0.2714
     84  CB        84.5090  -13.1610   33.6350 C.3    63  SER63       0.2130
     85  OG        84.6400  -11.7640   33.8160 O.3    63  SER63      -0.2179
     86  N         82.1160  -13.3230   35.2690 N.am   64  THR64      -0.1950
     87  CA        81.1440  -12.8650   36.2500 C.3    64  THR64       0.1897
     88  C         81.5480  -11.5200   36.8530 C.2    64  THR64       0.2313
     89  O         80.8020  -10.9400   37.6420 O.2    64  THR64      -0.2863
     90  CB        80.9970  -13.8940   37.3910 C.3    64  THR64       0.1794
     91  OG1       80.5840  -15.1530   36.8460 O.3    64  THR64      -0.2208
     92  CG2       79.9730  -13.4290   38.4080 C.3    64  THR64       0.0378
     93  N         83.6850   -9.0270   34.7370 N.3    66  GLN66      -0.1231
     94  CA        84.0710   -8.0630   33.7070 C.3    66  GLN66       0.1698
     95  C         83.0350   -7.9790   32.5920 C.2    66  GLN66       0.2593
     96  O         82.4180   -8.9810   32.2410 O.2    66  GLN66      -0.2718
     97  CB        85.4300   -8.4710   33.1250 C.3    66  GLN66       0.0381
     98  CG        86.0050   -7.5400   32.0690 C.3    66  GLN66       0.0905
     99  CD        87.3780   -7.9900   31.5860 C.2    66  GLN66       0.2608
    100  OE1       88.2380   -8.3560   32.3930 O.2    66  GLN66      -0.2717
    101  NE2       87.5950   -7.9570   30.2700 N.am   66  GLN66      -0.0878
    102  N         82.8440   -6.7800   32.0430 N.am   67  SER67      -0.1938
    103  CA        81.8970   -6.5780   30.9470 C.3    67  SER67       0.2055
    104  C         82.4180   -7.3100   29.7150 C.2    67  SER67       0.2643
    105  O         83.6200   -7.5600   29.6040 O.2    67  SER67      -0.2714
    106  CB        81.7480   -5.0850   30.6340 C.3    67  SER67       0.2130
    107  OG        82.9880   -4.5130   30.2510 O.3    67  SER67      -0.2179
    108  N         81.5280   -7.6490   28.7860 N.am   68  HIS68      -0.1959
    109  CA        81.9510   -8.3580   27.5860 C.3    68  HIS68       0.1787
    110  C         81.3670   -7.8230   26.2760 C.2    68  HIS68       0.2620
    111  O         82.0900   -7.2740   25.4420 O.2    68  HIS68      -0.2715
    112  CB        81.6200   -9.8520   27.7120 C.3    68  HIS68       0.0785
    113  CG        82.2190  -10.6920   26.6270 C.ar   68  HIS68       0.0821
    114  ND1       83.5370  -11.0930   26.6360 N.ar   68  HIS68      -0.2267
    115  CD2       81.6910  -11.1640   25.4710 C.ar   68  HIS68       0.1154
    116  CE1       83.7970  -11.7750   25.5350 C.ar   68  HIS68       0.1986
    117  NE2       82.6930  -11.8310   24.8110 N.ar   68  HIS68      -0.2212
    118  N         80.0600   -7.9710   26.0940 N.am   69  THR69      -0.1951
    119  CA        79.4150   -7.5320   24.8580 C.3    69  THR69       0.1897
    120  C         79.4820   -6.0250   24.6630 C.2    69  THR69       0.2313
    121  O         79.3090   -5.2730   25.6050 O.2    69  THR69      -0.2863
    122  CB        77.9420   -7.9710   24.8390 C.3    69  THR69       0.1794
    123  OG1       77.8820   -9.3930   25.0140 O.3    69  THR69      -0.2208
    124  CG2       77.2750   -7.6020   23.5200 C.3    69  THR69       0.0378
    125  N         72.7490   -7.0740   23.6620 N.3    92  THR92      -0.1218
    126  CA        73.2920   -5.7400   23.8550 C.3    92  THR92       0.1862
    127  C         74.3780   -5.5760   24.9020 C.2    92  THR92       0.2287
    128  O         74.5290   -6.3850   25.8180 O.2    92  THR92      -0.2866
    129  CB        72.1700   -4.7430   24.2110 C.3    92  THR92       0.1770
    130  OG1       71.6370   -5.0660   25.5060 O.3    92  THR92      -0.2211
    131  CG2       71.0410   -4.8220   23.1830 C.3    92  THR92       0.0375
    132  N         76.1550   -4.5110   28.0410 N.3    94  GLY94      -0.1225
    133  CA        75.6430   -4.3990   29.3860 C.3    94  GLY94       0.1811
    134  C         75.6260   -2.9740   29.8960 C.2    94  GLY94       0.2280
    135  O         76.5830   -2.2180   29.7080 O.2    94  GLY94      -0.2866
    136  N         69.7350   -9.2370   38.2070 N.3   125  ILE125     -0.1245
    137  CA        70.0500  -10.2320   39.2200 C.3   125  ILE125      0.1561
    138  C         69.3870   -9.8490   40.5330 C.2   125  ILE125      0.2260
    139  O         69.4240   -8.6870   40.9470 O.2   125  ILE125     -0.2867
    140  CB        71.5840  -10.3370   39.4330 C.3   125  ILE125      0.0252
    141  CG1       72.2290  -11.0150   38.2220 C.3   125  ILE125      0.0019
    142  CG2       71.8930  -11.1040   40.7190 C.3   125  ILE125      0.0019
    143  CD1       73.7440  -11.1240   38.3020 C.3   125  ILE125      0.0001
    144  N         67.3410  -13.0470   37.6210 N.3   170  ARG170     -0.1231
    145  CA        68.3410  -14.1020   37.7950 C.3   170  ARG170      0.1694
    146  C         68.7730  -14.3210   39.2430 C.2   170  ARG170      0.2592
    147  O         68.6790  -13.4170   40.0700 O.2   170  ARG170     -0.2718
    148  CB        69.5470  -13.7830   36.9070 C.3   170  ARG170      0.0321
    149  CG        69.1460  -13.4380   35.4630 C.3   170  ARG170      0.0489
    150  CD        68.6020  -14.6630   34.7180 C.3   170  ARG170      0.2205
    151  NE        69.6850  -15.5100   34.2220 N.pl3 170  ARG170     -0.0865
    152  CZ        70.3220  -15.3090   33.0730 C.cat 170  ARG170      0.5346
    153  NH1       69.9830  -14.2960   32.2860 N.pl3 170  ARG170      0.1354
    154  NH2       71.3110  -16.1150   32.7140 N.pl3 170  ARG170      0.1354
    155  N         69.2320  -15.5390   39.5460 N.am  171  ASP171     -0.1974
    156  CA        69.6570  -15.9040   40.9000 C.3   171  ASP171      0.1709
    157  C         68.5940  -15.4670   41.9120 C.2   171  ASP171      0.2293
    158  O         68.9170  -14.9950   43.0130 O.2   171  ASP171     -0.2864
    159  CB        70.9880  -15.2270   41.2460 C.3   171  ASP171      0.1436
    160  CG        72.1420  -15.6980   40.3740 C.2   171  ASP171      0.3671
    161  OD1       71.9300  -16.4820   39.4180 O.co2 171  ASP171     -0.2456
    162  OD2       73.2810  -15.2700   40.6590 O.co2 171  ASP171     -0.2456
    163  N         66.4730  -19.5500   39.1620 N.3   226  ASP226     -0.1225
    164  CA        67.2940  -19.8780   40.3180 C.3   226  ASP226      0.1805
    165  C         68.7610  -19.8070   39.9060 C.2   226  ASP226      0.2598
    166  O         69.0790  -19.7240   38.7210 O.2   226  ASP226     -0.2718
    167  CB        67.0200  -21.3140   40.7950 C.3   226  ASP226      0.1424
    168  CG        65.5530  -21.5880   41.0380 C.2   226  ASP226      0.3668
    169  OD1       64.8070  -20.6470   41.3650 O.co2 226  ASP226     -0.2456
    170  OD2       65.1450  -22.7640   40.9190 O.co2 226  ASP226     -0.2456
    171  N         69.6520  -19.8290   40.8930 N.am  227  ARG227     -0.1966
    172  CA        71.0870  -19.8550   40.6140 C.3   227  ARG227      0.1714
    173  C         71.2610  -21.1270   39.7790 C.2   227  ARG227      0.2458
    174  O         70.7890  -22.1940   40.1770 O.2   227  ARG227     -0.2730
    175  CB        71.8770  -20.0210   41.9130 C.3   227  ARG227      0.0347
    176  CG        72.3130  -18.7430   42.5770 C.3   227  ARG227      0.0492
    177  CD        73.5810  -18.2030   41.9470 C.3   227  ARG227      0.2205
    178  NE        74.0360  -16.9980   42.6290 N.pl3 227  ARG227     -0.0865
    179  CZ        74.6100  -16.9810   43.8280 C.cat 227  ARG227      0.5346
    180  NH1       74.8140  -18.1120   44.4930 N.pl3 227  ARG227      0.1354
    181  NH2       74.9740  -15.8260   44.3670 N.pl3 227  ARG227      0.1354
    182  N         71.9460  -21.0400   38.6290 N.am  228  PRO228     -0.2727
    183  CA        72.1540  -22.2110   37.7610 C.3   228  PRO228      0.1402
    184  C         72.9470  -23.3430   38.4020 C.2   228  PRO228      0.2269
    185  O         72.5780  -24.5200   38.3020 O.2   228  PRO228     -0.2865
    186  CB        72.9080  -21.6340   36.5660 C.3   228  PRO228      0.0296
    187  CG        72.5360  -20.1900   36.5660 C.3   228  PRO228      0.0237
    188  CD        72.5120  -19.8290   38.0180 C.3   228  PRO228      0.0939
    189  N         79.8450  -21.3770   38.1990 N.3   234  LEU234     -0.1231
    190  CA        79.1560  -20.3780   37.3870 C.3   234  LEU234      0.1693
    191  C         79.9290  -19.9870   36.1270 C.2   234  LEU234      0.2591
    192  O         79.3410  -19.8100   35.0610 O.2   234  LEU234     -0.2718
    193  CB        78.8630  -19.1290   38.2240 C.3   234  LEU234      0.0284
    194  CG        77.7780  -19.2860   39.2970 C.3   234  LEU234      0.0019
    195  CD1       77.7370  -18.0620   40.1920 C.3   234  LEU234      0.0001
    196  CD2       76.4270  -19.5040   38.6160 C.3   234  LEU234      0.0001
    197  N         81.2470  -19.8670   36.2490 N.am  235  ALA235     -0.1980
    198  CA        82.0920  -19.4800   35.1220 C.3   235  ALA235      0.1597
    199  C         82.2360  -20.5470   34.0350 C.2   235  ALA235      0.2287
    200  O         82.7280  -20.2600   32.9440 O.2   235  ALA235     -0.2864
    201  CB        83.4750  -19.0740   35.6310 C.3   235  ALA235      0.0319
    202  N         79.5210  -22.5160   33.2430 N.3   237  LEU237     -0.1231
    203  CA        78.1460  -22.7800   32.8400 C.3   237  LEU237      0.1693
    204  C         77.9610  -23.1520   31.3710 C.2   237  LEU237      0.2591
    205  O         77.2860  -24.1300   31.0490 O.2   237  LEU237     -0.2718
    206  CB        77.2760  -21.5660   33.1820 C.3   237  LEU237      0.0284
    207  CG        75.7640  -21.7800   33.1990 C.3   237  LEU237      0.0019
    208  CD1       75.4100  -22.9100   34.1610 C.3   237  LEU237      0.0001
    209  CD2       75.0850  -20.4910   33.6240 C.3   237  LEU237      0.0001
    210  N         78.5690  -22.3740   30.4840 N.am  238  GLU238     -0.1979
    211  CA        78.4540  -22.6020   29.0490 C.3   238  GLU238      0.1602
    212  C         78.8810  -24.0010   28.6030 C.2   238  GLU238      0.2287
    213  O         78.3320  -24.5500   27.6480 O.2   238  GLU238     -0.2864
    214  CB        79.2680  -21.5390   28.3000 C.3   238  GLU238      0.0415
    215  CG        79.2620  -21.6880   26.7890 C.3   238  GLU238      0.1163
    216  CD        79.7310  -20.4300   26.0780 C.2   238  GLU238      0.3649
    217  OE1       80.8410  -19.9420   26.3880 O.co2 238  GLU238     -0.2457
    218  OE2       78.9860  -19.9350   25.2040 O.co2 238  GLU238     -0.2457
    219  N         66.2030  -24.5410   37.3140 N.3   249  PHE249     -0.1241
    220  CA        66.7250  -23.5010   36.4230 C.3   249  PHE249      0.1605
    221  C         66.5460  -23.9530   34.9780 C.2   249  PHE249      0.2264
    222  O         66.1350  -23.1850   34.1110 O.2   249  PHE249     -0.2867
    223  CB        68.2170  -23.2490   36.6780 C.3   249  PHE249      0.0534
    224  CG        68.8570  -22.3260   35.6720 C.ar  249  PHE249     -0.0203
    225  CD1       68.6510  -20.9500   35.7370 C.ar  249  PHE249     -0.0042
    226  CD2       69.6620  -22.8320   34.6560 C.ar  249  PHE249     -0.0042
    227  CE1       69.2370  -20.0960   34.8050 C.ar  249  PHE249     -0.0003
    228  CE2       70.2540  -21.9870   33.7180 C.ar  249  PHE249     -0.0003
    229  CZ        70.0390  -20.6110   33.7940 C.ar  249  PHE249     -0.0000
@<TRIPOS>BOND
     1    62    63    1
     2    67    66    1
     3    66    63    1
     4    63    64    1
     5   131   129    1
     6   124   122    1
     7   125   126    1
     8   126   129    1
     9   126   127    1
    10   129   130    1
    11    64    65    2
    12    64    68   am
    13   120   119    1
    14   120   121    2
    15   117   115   ar
    16   117   116   ar
    17   122   119    1
    18   122   123    1
    19   119   118    1
    20   127   128    2
    21   218   216   ar
    22   111   110    2
    23   115   113   ar
    24    47    46    2
    25   116   114   ar
    26    68    69    1
    27    49    48    1
    28    48    45    1
    29   216   217   ar
    30   216   215    1
    31   118   110   am
    32   110   109    1
    33    45    46    1
    34    45    44    1
    35    46    50   am
    36   113   114   ar
    37   113   112    1
    38    75    73    1
    39   215   214    1
    40    69    70    1
    41    69    72    1
    42    53    52    2
    43    73    72    1
    44    73    74    1
    45    71    70    2
    46    38    37    2
    47    44    37   am
    48   109   112    1
    49   109   108    1
    50    70    76   am
    51   213   212    2
    52    50    51    1
    53    52    51    1
    54    37    36    1
    55    51    54    1
    56   132   133    1
    57   214   211    1
    58   212   211    1
    59    76    77    1
    60    39    36    1
    61    39    40    1
    62   108   104   am
    63    42    41    1
    64    42    43    1
    65   211   210    1
    66    36    35    1
    67   133   134    1
    68    54    55    1
    69    41    40    1
    70    56    55   ar
    71    56    58   ar
    72    77    78    1
    73   105   104    2
    74   135   134    2
    75   104   103    1
    76    55    57   ar
    77    58    60   ar
    78    35    33   am
    79   107   106    1
    80   101    99   am
    81    34    33    2
    82   210   204   am
    83   106   103    1
    84    57    59   ar
    85    60    59   ar
    86    60    61    1
    87    78    79    2
    88    78    80   am
    89    33    32    1
    90   103   102    1
    91   205   204    2
    92   204   203    1
    93    99    98    1
    94    99   100    2
    95    80    81    1
    96    32    31    1
    97   102    95   am
    98    98    97    1
    99    96    95    2
   100   153   152    1
   101     5     2    1
   102     5     6    1
   103     2     1    1
   104     2     3    1
   105    95    94    1
   106   154   152    1
   107    31    26   am
   108   203   206    1
   109   203   202    1
   110   200   199    2
   111    13     3   am
   112    13    14    1
   113   152   151    2
   114    81    84    1
   115    81    82    1
   116    97    94    1
   117   206   207    1
   118   207   209    1
   119   207   208    1
   120    29    28    1
   121     3     4    2
   122     6     7   ar
   123     6     8   ar
   124    83    82    2
   125    84    85    1
   126    26    27    2
   127    26    25    1
   128    94    93    1
   129   228   229   ar
   130   228   226   ar
   131    14    15    1
   132    14    17    1
   133   229   227   ar
   134    24    25    1
   135    24    15   am
   136    82    86   am
   137     7     9   ar
   138   199   198    1
   139   222   221    2
   140   151   150    1
   141     8    10   ar
   142    25    28    1
   143    15    16    2
   144    28    30    1
   145   226   224   ar
   146   150   149    1
   147   227   225   ar
   148    17    18    1
   149   221   220    1
   150   192   191    2
   151   198   201    1
   152   198   197    1
   153     9    11   ar
   154    86    87    1
   155    10    11   ar
   156   149   148    1
   157   224   225   ar
   158   224   223    1
   159    11    12    1
   160    18    19    1
   161   191   197   am
   162   191   190    1
   163    87    88    1
   164    87    90    1
   165   220   223    1
   166   220   219    1
   167   186   187    1
   168   186   183    1
   169   187   188    1
   170    91    90    1
   171    88    89    2
   172   148   145    1
   173    19    20    1
   174    22    21    1
   175   190   189    1
   176   190   193    1
   177    90    92    1
   178   144   145    1
   179   183   184    1
   180   183   182    1
   181   145   146    1
   182   188   182    1
   183   136   137    1
   184   141   143    1
   185   141   140    1
   186   193   194    1
   187    20    21    2
   188   185   184    2
   189    21    23    1
   190   196   194    1
   191   182   173   am
   192   166   165    2
   193   163   164    1
   194   137   140    1
   195   137   138    1
   196   146   155   am
   197   146   147    2
   198   194   195    1
   199   161   160   ar
   200   140   142    1
   201   155   156    1
   202   173   174    2
   203   173   172    1
   204   165   164    1
   205   165   171   am
   206   164   167    1
   207   160   162   ar
   208   160   159    1
   209   138   139    2
   210   172   171    1
   211   172   175    1
   212   167   168    1
   213   156   159    1
   214   156   157    1
   215   170   168   ar
   216   168   169   ar
   217   157   158    2
   218   175   176    1
   219   177   176    1
   220   177   178    1
   221   178   179    2
   222   179   181    1
   223   179   180    1
