@<TRIPOS>MOLECULE
tmp/1f5oB00.pdb
 230 222 0 0 0
SMALL
GASTEIGER

@<TRIPOS>ATOM
      1  N          9.5640   45.7620  119.7600 N.3    41  PHE41      -0.1241
      2  CA         8.2300   45.5110  120.2880 C.3    41  PHE41       0.1605
      3  C          7.9060   44.0200  120.3370 C.2    41  PHE41       0.2264
      4  O          7.4090   43.5100  121.3470 O.2    41  PHE41      -0.2867
      5  CB         7.1760   46.2180  119.4260 C.3    41  PHE41       0.0534
      6  CG         5.7680   45.7410  119.6820 C.ar   41  PHE41      -0.0203
      7  CD1        5.1060   46.0650  120.8670 C.ar   41  PHE41      -0.0042
      8  CD2        5.1310   44.9080  118.7700 C.ar   41  PHE41      -0.0042
      9  CE1        3.8350   45.5630  121.1410 C.ar   41  PHE41      -0.0003
     10  CE2        3.8620   44.4020  119.0350 C.ar   41  PHE41      -0.0003
     11  CZ         3.2140   44.7300  120.2250 C.ar   41  PHE41      -0.0000
     12  N          1.9600   39.2270  122.5150 N.3    48  ALA48      -0.1245
     13  CA         1.4660   39.7530  121.2460 C.3    48  ALA48       0.1562
     14  C          2.0160   39.0410  120.0130 C.2    48  ALA48       0.2260
     15  O          1.5840   39.3070  118.8930 O.2    48  ALA48      -0.2867
     16  CB         1.7860   41.2450  121.1590 C.3    48  ALA48       0.0290
     17  N         -0.0090   37.1250  117.1720 N.3    51  PHE51      -0.1227
     18  CA        -0.7620   37.9000  116.2030 C.3    51  PHE51       0.1736
     19  C         -0.0110   38.2410  114.9360 C.2    51  PHE51       0.2595
     20  O         -0.5280   38.9480  114.0750 O.2    51  PHE51      -0.2718
     21  CB        -1.2890   39.1660  116.8580 C.3    51  PHE51       0.0547
     22  CG        -2.2700   38.8950  117.9560 C.ar   51  PHE51      -0.0202
     23  CD1       -1.8740   38.9110  119.2830 C.ar   51  PHE51      -0.0042
     24  CD2       -3.5820   38.5580  117.6500 C.ar   51  PHE51      -0.0042
     25  CE1       -2.7690   38.5920  120.2880 C.ar   51  PHE51      -0.0003
     26  CE2       -4.4870   38.2360  118.6520 C.ar   51  PHE51      -0.0003
     27  CZ        -4.0800   38.2520  119.9720 C.ar   51  PHE51      -0.0000
     28  N          1.2130   37.7380  114.8270 N.am   52  PHE52      -0.1963
     29  CA         2.0350   37.9540  113.6410 C.3    52  PHE52       0.1756
     30  C          2.2900   36.5690  113.0450 C.2    52  PHE52       0.2461
     31  O          3.3990   36.0340  113.1310 O.2    52  PHE52      -0.2730
     32  CB         3.3710   38.6200  114.0050 C.3    52  PHE52       0.0574
     33  CG         3.2370   40.0110  114.5660 C.ar   52  PHE52      -0.0200
     34  CD1        2.9200   40.2090  115.9120 C.ar   52  PHE52      -0.0042
     35  CD2        3.4340   41.1240  113.7500 C.ar   52  PHE52      -0.0042
     36  CE1        2.8070   41.4960  116.4330 C.ar   52  PHE52      -0.0003
     37  CE2        3.3210   42.4080  114.2640 C.ar   52  PHE52      -0.0003
     38  CZ         3.0080   42.5940  115.6090 C.ar   52  PHE52      -0.0000
     39  N          1.2560   35.9660  112.4400 N.am   53  PRO53      -0.2716
     40  CA         1.3340   34.6380  111.8290 C.3    53  PRO53       0.1536
     41  C          2.5060   34.4820  110.8810 C.2    53  PRO53       0.2598
     42  O          3.2110   33.4810  110.9170 O.2    53  PRO53      -0.2715
     43  CB        -0.0010   34.5120  111.1050 C.3    53  PRO53       0.0310
     44  CG        -0.9090   35.3280  111.9420 C.3    53  PRO53       0.0237
     45  CD        -0.0770   36.5510  112.2270 C.3    53  PRO53       0.0939
     46  N          2.7200   35.4770  110.0330 N.am   54  LYS54      -0.1978
     47  CA         3.8100   35.3960  109.0750 C.3    54  LYS54       0.1596
     48  C          5.2030   35.3730  109.7130 C.2    54  LYS54       0.2287
     49  O          6.1990   35.2390  109.0120 O.2    54  LYS54      -0.2864
     50  CB         3.7120   36.5520  108.0820 C.3    54  LYS54       0.0298
     51  CG         2.3780   36.6440  107.3720 C.3    54  LYS54       0.0038
     52  CD         2.4160   37.7350  106.3200 C.3    54  LYS54       0.0206
     53  CE         1.0770   37.8870  105.6190 C.3    54  LYS54       0.1093
     54  NZ         1.0930   38.9900  104.6120 N.3    54  LYS54      -0.1314
     55  N          6.0940   44.5920  106.8980 N.3    73  HIS73      -0.1241
     56  CA         5.1230   44.9130  107.9260 C.3    73  HIS73       0.1621
     57  C          5.5650   46.1650  108.6880 C.2    73  HIS73       0.2264
     58  O          4.7510   47.0320  109.0120 O.2    73  HIS73      -0.2867
     59  CB         4.9880   43.7210  108.8700 C.3    73  HIS73       0.0745
     60  CG         3.7860   43.7780  109.7600 C.ar   73  HIS73       0.0817
     61  ND1        3.3090   42.6500  110.3850 N.ar   73  HIS73      -0.2268
     62  CD2        3.0260   44.8450  110.1130 C.ar   73  HIS73       0.1154
     63  CE1        2.2800   43.0520  111.1030 C.ar   73  HIS73       0.1986
     64  NE2        2.0700   44.3740  110.9710 N.ar   73  HIS73      -0.2212
     65  N          5.1960   49.3820  106.5120 N.3    76  ARG76      -0.1231
     66  CA         3.8070   49.7910  106.3970 C.3    76  ARG76       0.1694
     67  C          3.3510   50.4990  107.6630 C.2    76  ARG76       0.2591
     68  O          2.7250   51.5580  107.5980 O.2    76  ARG76      -0.2718
     69  CB         2.9260   48.5740  106.1200 C.3    76  ARG76       0.0321
     70  CG         2.9190   48.1600  104.6410 C.3    76  ARG76       0.0489
     71  CD         3.0050   46.6580  104.4700 C.3    76  ARG76       0.2205
     72  NE         1.7880   45.9590  104.8490 N.pl3  76  ARG76      -0.0865
     73  CZ         1.7630   44.7060  105.2890 C.cat  76  ARG76       0.5346
     74  NH1        0.6170   44.1390  105.6060 N.pl3  76  ARG76       0.1354
     75  NH2        2.8810   44.0220  105.4320 N.pl3  76  ARG76       0.1354
     76  N          3.6760   49.9180  108.8120 N.am   77  ILE77      -0.1980
     77  CA         3.3090   50.5030  110.1000 C.3    77  ILE77       0.1595
     78  C          3.9390   51.8820  110.2600 C.2    77  ILE77       0.2287
     79  O          3.2620   52.8650  110.5690 O.2    77  ILE77      -0.2864
     80  CB         3.7870   49.6180  111.2980 C.3    77  ILE77       0.0276
     81  CG1        2.9740   48.3200  111.3640 C.3    77  ILE77       0.0022
     82  CG2        3.6480   50.3820  112.6130 C.3    77  ILE77       0.0022
     83  CD1        3.3380   47.4370  112.5500 C.3    77  ILE77       0.0001
     84  N          2.3380   54.5340  108.2470 N.3    80  ALA80      -0.1231
     85  CA         1.0000   54.8790  108.6730 C.3    80  ALA80       0.1694
     86  C          1.1620   56.0290  109.6470 C.2    80  ALA80       0.2591
     87  O          0.4300   57.0110  109.5830 O.2    80  ALA80      -0.2718
     88  CB         0.3500   53.6950  109.3570 C.3    80  ALA80       0.0304
     89  N          2.1340   55.9000  110.5470 N.am   81  VAL81      -0.1980
     90  CA         2.3960   56.9380  111.5350 C.3    81  VAL81       0.1595
     91  C          2.7740   58.2040  110.7890 C.2    81  VAL81       0.2287
     92  O          2.3210   59.2930  111.1190 O.2    81  VAL81      -0.2864
     93  CB         3.5600   56.5540  112.4820 C.3    81  VAL81       0.0276
     94  CG1        3.8550   57.7150  113.4190 C.3    81  VAL81       0.0022
     95  CG2        3.2020   55.3050  113.2850 C.3    81  VAL81       0.0022
     96  N         -7.2710   56.4930  109.5120 N.3    98  LEU98      -0.1245
     97  CA        -7.0730   55.6130  110.6470 C.3    98  LEU98       0.1561
     98  C         -8.2850   54.7470  110.9560 C.2    98  LEU98       0.2260
     99  O         -8.1270   53.5720  111.2600 O.2    98  LEU98      -0.2867
    100  CB        -6.6730   56.4170  111.8830 C.3    98  LEU98       0.0270
    101  CG        -5.1930   56.8030  111.9030 C.3    98  LEU98       0.0019
    102  CD1       -4.8820   57.7270  113.0610 C.3    98  LEU98       0.0001
    103  CD2       -4.3640   55.5440  111.9940 C.3    98  LEU98       0.0001
    104  N         -8.2630   51.9240  108.8240 N.3   101  LEU101     -0.1245
    105  CA        -7.2260   51.0260  109.2760 C.3   101  LEU101      0.1561
    106  C         -7.6940   50.2660  110.5070 C.2   101  LEU101      0.2260
    107  O         -7.3190   49.1120  110.7110 O.2   101  LEU101     -0.2867
    108  CB        -5.9790   51.8510  109.5920 C.3   101  LEU101      0.0270
    109  CG        -4.6470   51.1400  109.7750 C.3   101  LEU101      0.0019
    110  CD1       -4.4660   50.0830  108.6980 C.3   101  LEU101      0.0001
    111  CD2       -3.5430   52.1660  109.7090 C.3   101  LEU101      0.0001
    112  N         -9.7350   47.2820  109.4770 N.3   104  LYS104     -0.1231
    113  CA        -8.9300   46.1700  108.9830 C.3   104  LYS104      0.1693
    114  C         -8.3470   45.3430  110.1210 C.2   104  LYS104      0.2592
    115  O         -8.3080   44.1080  110.0550 O.2   104  LYS104     -0.2718
    116  CB        -7.7820   46.6680  108.1110 C.3   104  LYS104      0.0285
    117  CG        -8.1930   47.3210  106.8160 C.3   104  LYS104      0.0035
    118  CD        -6.9480   47.6350  106.0230 C.3   104  LYS104      0.0206
    119  CE        -7.2560   48.4210  104.7670 C.3   104  LYS104      0.1093
    120  NZ        -5.9900   48.7180  104.0350 N.3   104  LYS104     -0.1314
    121  N         -7.8810   46.0230  111.1610 N.am  105  HIS105     -0.1976
    122  CA        -7.2970   45.3190  112.2850 C.3   105  HIS105      0.1656
    123  C         -8.3260   44.4790  113.0150 C.2   105  HIS105      0.2291
    124  O         -8.0400   43.3650  113.4490 O.2   105  HIS105     -0.2864
    125  CB        -6.6390   46.2980  113.2630 C.3   105  HIS105      0.0771
    126  CG        -5.2650   46.7300  112.8450 C.ar  105  HIS105      0.0820
    127  ND1       -5.0210   47.6820  111.8780 N.ar  105  HIS105     -0.2267
    128  CD2       -4.0440   46.3050  113.2630 C.ar  105  HIS105      0.1154
    129  CE1       -3.6940   47.8080  111.7430 C.ar  105  HIS105      0.1986
    130  NE2       -3.0510   46.9940  112.5610 N.ar  105  HIS105     -0.2212
    131  N         -7.3160   41.2270  110.3050 N.3   109  PHE109     -0.1241
    132  CA        -6.1220   40.7970  111.0180 C.3   109  PHE109      0.1605
    133  C         -6.4920   40.2060  112.3690 C.2   109  PHE109      0.2264
    134  O         -5.7540   39.3940  112.9230 O.2   109  PHE109     -0.2867
    135  CB        -5.1860   41.9910  111.2140 C.3   109  PHE109      0.0534
    136  CG        -4.9610   42.7960  109.9600 C.ar  109  PHE109     -0.0203
    137  CD1       -4.7290   44.1660  110.0340 C.ar  109  PHE109     -0.0042
    138  CD2       -5.0010   42.1830  108.7090 C.ar  109  PHE109     -0.0042
    139  CE1       -4.5480   44.9180  108.8850 C.ar  109  PHE109     -0.0003
    140  CE2       -4.8200   42.9200  107.5550 C.ar  109  PHE109     -0.0003
    141  CZ        -4.5940   44.3010  107.6370 C.ar  109  PHE109     -0.0000
    142  N         -6.5260   41.4940  115.4590 N.3   111  VAL111     -0.1231
    143  CA        -5.5170   41.6950  116.4800 C.3   111  VAL111      0.1692
    144  C         -6.1630   42.2410  117.7470 C.2   111  VAL111      0.2592
    145  O         -7.1240   43.0200  117.6880 O.2   111  VAL111     -0.2718
    146  CB        -4.4100   42.6640  115.9990 C.3   111  VAL111      0.0266
    147  CG1       -3.9510   42.2680  114.6220 C.3   111  VAL111      0.0020
    148  CG2       -4.9140   44.0860  115.9980 C.3   111  VAL111      0.0020
    149  N         -5.6390   41.8040  118.8880 N.am  112  ASP112     -0.1974
    150  CA        -6.1130   42.2440  120.1950 C.3   112  ASP112      0.1709
    151  C         -5.8510   43.7520  120.2510 C.2   112  ASP112      0.2293
    152  O         -4.7090   44.1930  120.1090 O.2   112  ASP112     -0.2864
    153  CB        -5.3200   41.5260  121.2810 C.3   112  ASP112      0.1436
    154  CG        -5.9250   41.6900  122.6440 C.2   112  ASP112      0.3671
    155  OD1       -6.3190   42.8230  122.9960 O.co2 112  ASP112     -0.2456
    156  OD2       -5.9930   40.6800  123.3660 O.co2 112  ASP112     -0.2456
    157  N         -2.6690   46.0120  122.3970 N.3   115  TYR115     -0.1227
    158  CA        -1.2710   46.2640  122.0670 C.3   115  TYR115      0.1736
    159  C         -0.9530   47.5340  121.2790 C.2   115  TYR115      0.2595
    160  O          0.2010   47.9520  121.2090 O.2   115  TYR115     -0.2718
    161  CB        -0.6900   45.0510  121.3500 C.3   115  TYR115      0.0548
    162  CG        -0.7920   43.8040  122.1870 C.ar  115  TYR115     -0.0200
    163  CD1       -1.8340   42.9070  122.0030 C.ar  115  TYR115     -0.0009
    164  CD2        0.1190   43.5520  123.2150 C.ar  115  TYR115     -0.0009
    165  CE1       -1.9730   41.7930  122.8200 C.ar  115  TYR115      0.0417
    166  CE2       -0.0170   42.4410  124.0380 C.ar  115  TYR115      0.0417
    167  CZ        -1.0650   41.5730  123.8330 C.ar  115  TYR115      0.1957
    168  OH        -1.2220   40.4960  124.6600 O.3   115  TYR115     -0.2866
    169  N         -1.9650   48.1560  120.6890 N.am  116  PHE116     -0.1976
    170  CA        -1.7370   49.3780  119.9340 C.3   116  PHE116      0.1639
    171  C         -0.8930   50.3570  120.7420 C.2   116  PHE116      0.2290
    172  O          0.1010   50.8740  120.2440 O.2   116  PHE116     -0.2864
    173  CB        -3.0690   50.0290  119.5630 C.3   116  PHE116      0.0560
    174  CG        -3.8790   49.2390  118.5690 C.ar  116  PHE116     -0.0200
    175  CD1       -5.2550   49.1210  118.7160 C.ar  116  PHE116     -0.0042
    176  CD2       -3.2710   48.6260  117.4800 C.ar  116  PHE116     -0.0042
    177  CE1       -6.0050   48.4080  117.8030 C.ar  116  PHE116     -0.0003
    178  CE2       -4.0180   47.9150  116.5650 C.ar  116  PHE116     -0.0003
    179  CZ        -5.3830   47.8070  116.7270 C.ar  116  PHE116     -0.0000
    180  N          2.9070   49.2220  121.4240 N.3   119  LEU119     -0.1231
    181  CA         3.7840   49.4880  120.2930 C.3   119  LEU119      0.1693
    182  C          3.9510   50.9860  120.1060 C.2   119  LEU119      0.2591
    183  O          5.0240   51.4470  119.7330 O.2   119  LEU119     -0.2718
    184  CB         3.2180   48.8680  119.0090 C.3   119  LEU119      0.0284
    185  CG         3.8920   49.2970  117.7080 C.3   119  LEU119      0.0019
    186  CD1        5.3540   48.9420  117.7620 C.3   119  LEU119      0.0001
    187  CD2        3.2230   48.6250  116.5340 C.3   119  LEU119      0.0001
    188  N          2.8880   51.7440  120.3580 N.am  120  ALA120     -0.1980
    189  CA         2.9460   53.1940  120.2020 C.3   120  ALA120      0.1597
    190  C          4.0300   53.7540  121.1130 C.2   120  ALA120      0.2287
    191  O          4.7310   54.7080  120.7560 O.2   120  ALA120     -0.2864
    192  CB         1.5900   53.8240  120.5380 C.3   120  ALA120      0.0319
    193  N          7.4780   53.3290  119.6730 N.3   123  ILE123     -0.1245
    194  CA         7.6700   54.3180  118.6250 C.3   123  ILE123      0.1561
    195  C          7.9690   55.6730  119.2770 C.2   123  ILE123      0.2260
    196  O          8.7710   56.4550  118.7660 O.2   123  ILE123     -0.2867
    197  CB         6.4040   54.4440  117.7370 C.3   123  ILE123      0.0252
    198  CG1        6.1330   53.1290  117.0210 C.3   123  ILE123      0.0019
    199  CG2        6.5780   55.5660  116.7260 C.3   123  ILE123      0.0019
    200  CD1        4.8620   53.1480  116.2030 C.3   123  ILE123      0.0001
    201  N          0.4420   60.0690  119.5340 N.3   138  MET138     -0.1245
    202  CA         0.3070   58.6100  119.5490 C.3   138  MET138      0.1570
    203  C         -1.0260   58.2050  120.1710 C.2   138  MET138      0.2261
    204  O         -1.5980   57.1770  119.8140 O.2   138  MET138     -0.2867
    205  CB         1.4470   57.9470  120.3370 C.3   138  MET138      0.0387
    206  CG         2.8090   58.0510  119.6820 C.3   138  MET138      0.0595
    207  SD         2.8820   57.2640  118.0700 S.3   138  MET138     -0.1393
    208  CE         2.6540   58.6310  117.0320 C.3   138  MET138      0.0692
    209  N         -3.7800   58.4190  117.6200 N.3   141  ILE141     -0.1231
    210  CA        -3.6620   57.2610  116.7400 C.3   141  ILE141      0.1692
    211  C         -4.2110   55.9900  117.3890 C.2   141  ILE141      0.2592
    212  O         -4.9030   55.2110  116.7500 O.2   141  ILE141     -0.2718
    213  CB        -2.1820   57.0290  116.3200 C.3   141  ILE141      0.0266
    214  CG1       -1.7000   58.2000  115.4650 C.3   141  ILE141      0.0019
    215  CG2       -2.0450   55.7340  115.5320 C.3   141  ILE141      0.0020
    216  CD1       -0.2610   58.0760  115.0300 C.3   141  ILE141      0.0001
    217  N         -3.9080   55.7720  118.6590 N.am  142  CYS142     -0.1970
    218  CA        -4.4050   54.5810  119.3220 C.3   142  CYS142      0.1712
    219  C         -5.9090   54.6370  119.5380 C.2   142  CYS142      0.2296
    220  O         -6.5950   53.6240  119.3650 O.2   142  CYS142     -0.2864
    221  CB        -3.6930   54.3750  120.6520 C.3   142  CYS142      0.0983
    222  SG        -2.0010   53.8310  120.4490 S.3   142  CYS142     -0.0798
    223  N         -7.4180   53.8870  116.2490 N.3   145  LEU145     -0.1245
    224  CA        -7.1850   52.5040  115.8550 C.3   145  LEU145      0.1561
    225  C         -8.1110   51.5350  116.5700 C.2   145  LEU145      0.2260
    226  O         -8.2730   50.3960  116.1310 O.2   145  LEU145     -0.2867
    227  CB        -5.7360   52.0810  116.1190 C.3   145  LEU145      0.0270
    228  CG        -4.7030   52.3970  115.0360 C.3   145  LEU145      0.0019
    229  CD1       -3.3830   51.7850  115.4080 C.3   145  LEU145      0.0001
    230  CD2       -5.1620   51.8450  113.7020 C.3   145  LEU145      0.0001
@<TRIPOS>BOND
     1   120   119    1
     2    71    70    1
     3    71    72    1
     4    54    53    1
     5    70    69    1
     6   119   118    1
     7    72    73    2
     8    73    75    1
     9    73    74    1
    10    53    52    1
    11   118   117    1
    12    69    66    1
    13    52    51    1
    14    66    65    1
    15    66    67    1
    16   117   116    1
    17    55    56    1
    18    51    50    1
    19   140   141   ar
    20   140   138   ar
    21    68    67    2
    22   141   139   ar
    23    67    76   am
    24    56    57    1
    25    56    59    1
    26    50    47    1
    27   116   113    1
    28    84    85    1
    29    85    88    1
    30    85    86    1
    31    57    58    2
    32   110   109    1
    33   138   136   ar
    34    76    77    1
    35   104   105    1
    36    59    60    1
    37   139   137   ar
    38   113   112    1
    39   113   114    1
    40    49    48    2
    41    47    48    1
    42    47    46    1
    43   105   108    1
    44   105   106    1
    45    96    97    1
    46    87    86    2
    47   108   109    1
    48    86    89   am
    49   111   109    1
    50    60    62   ar
    51    60    61   ar
    52   136   137   ar
    53   136   135    1
    54    46    41   am
    55   115   114    2
    56    77    78    1
    57    77    80    1
    58    62    64   ar
    59   114   121   am
    60    78    79    2
    61   131   132    1
    62    61    63   ar
    63   106   107    2
    64    89    90    1
    65    97    98    1
    66    97   100    1
    67    91    92    2
    68    91    90    1
    69    41    42    2
    70    41    40    1
    71    98    99    2
    72    64    63   ar
    73   132   135    1
    74   132   133    1
    75    43    40    1
    76    43    44    1
    77   121   122    1
    78    80    81    1
    79    80    82    1
    80    81    83    1
    81    90    93    1
    82   129   127   ar
    83   129   130   ar
    84    40    39    1
    85   127   126   ar
    86   100   101    1
    87   101   103    1
    88   101   102    1
    89    44    45    1
    90    45    39    1
    91   122   123    1
    92   122   125    1
    93   133   134    2
    94    39    30   am
    95    93    95    1
    96    93    94    1
    97   130   128   ar
    98   126   128   ar
    99   126   125    1
   100   123   124    2
   101    30    31    2
   102    30    29    1
   103    29    32    1
   104    29    28    1
   105   230   228    1
   106    35    37   ar
   107    35    33   ar
   108    32    33    1
   109    20    19    2
   110    37    38   ar
   111    33    34   ar
   112   147   146    1
   113    28    19   am
   114    19    18    1
   115   216   214    1
   116   228   229    1
   117   228   227    1
   118   142   143    1
   119   214   213    1
   120   215   213    1
   121    38    36   ar
   122   224   227    1
   123   224   223    1
   124   224   225    1
   125    34    36   ar
   126   148   146    1
   127   146   143    1
   128   226   225    2
   129    18    21    1
   130    18    17    1
   131   200   198    1
   132   213   210    1
   133   143   144    1
   134   187   185    1
   135   178   179   ar
   136   178   176   ar
   137   199   197    1
   138   179   177   ar
   139   210   211    1
   140   210   209    1
   141   212   211    2
   142    21    22    1
   143   198   197    1
   144   208   207    1
   145   211   217   am
   146   176   174   ar
   147    24    22   ar
   148    24    26   ar
   149   145   144    2
   150   185   186    1
   151   185   184    1
   152   197   194    1
   153   144   149   am
   154   177   175   ar
   155    22    23   ar
   156   207   206    1
   157   174   175   ar
   158   174   173    1
   159   194   195    1
   160   194   193    1
   161    26    27   ar
   162   217   218    1
   163   196   195    2
   164     8    10   ar
   165     8     6   ar
   166   149   150    1
   167    15    14    2
   168   184   181    1
   169    10    11   ar
   170    23    25   ar
   171   218   219    1
   172   218   221    1
   173   220   219    2
   174     5     6    1
   175     5     2    1
   176   201   202    1
   177   202   203    1
   178   202   205    1
   179   173   170    1
   180     6     7   ar
   181   206   205    1
   182   183   182    2
   183     1     2    1
   184   204   203    2
   185   170   169    1
   186   170   171    1
   187    27    25   ar
   188    14    13    1
   189   182   181    1
   190   182   188   am
   191   152   151    2
   192   150   151    1
   193   150   153    1
   194   189   188    1
   195   189   192    1
   196   189   190    1
   197    11     9   ar
   198   172   171    2
   199     2     3    1
   200   181   180    1
   201     3     4    2
   202   222   221    1
   203   169   159   am
   204   191   190    2
   205     7     9   ar
   206    16    13    1
   207   160   159    2
   208    13    12    1
   209   159   158    1
   210   153   154    1
   211   161   158    1
   212   161   162    1
   213   163   162   ar
   214   163   165   ar
   215   158   157    1
   216   162   164   ar
   217   154   155   ar
   218   154   156   ar
   219   165   167   ar
   220   164   166   ar
   221   167   166   ar
   222   167   168    1
