@<TRIPOS>MOLECULE
tmp/1f6aA01.pdb
 99 97 0 0 0
SMALL
GASTEIGER

@<TRIPOS>ATOM
      1  N          5.5490   86.9240  179.7800 N.3    41  HIS41      -0.1226
      2  CA         6.9290   87.2430  180.1210 C.3    41  HIS41       0.1752
      3  C          7.6710   86.0060  180.6300 C.2    41  HIS41       0.2596
      4  O          7.4130   85.5110  181.7290 O.2    41  HIS41      -0.2718
      5  CB         6.9500   88.3590  181.1660 C.3    41  HIS41       0.0759
      6  CG         8.3250   88.8320  181.5290 C.ar   41  HIS41       0.0818
      7  ND1        9.3610   88.9010  180.6180 N.ar   41  HIS41      -0.2268
      8  CD2        8.8220   89.3020  182.6980 C.ar   41  HIS41       0.1154
      9  CE1       10.4330   89.3890  181.2130 C.ar   41  HIS41       0.1986
     10  NE2       10.1330   89.6420  182.4750 N.ar   41  HIS41      -0.2212
     11  N          8.5940   85.5130  179.8060 N.am   42  ASN42      -0.1974
     12  CA         9.3830   84.3290  180.1220 C.3    42  ASN42       0.1688
     13  C          8.4640   83.1560  180.4210 C.2    42  ASN42       0.2292
     14  O          8.9230   82.0370  180.6570 O.2    42  ASN42      -0.2864
     15  CB        10.3130   84.6010  181.3150 C.3    42  ASN42       0.1181
     16  CG        11.5730   85.3600  180.9150 C.2    42  ASN42       0.2629
     17  OD1       11.4980   86.3900  180.2430 O.2    42  ASN42      -0.2716
     18  ND2       12.7320   84.8570  181.3330 N.am   42  ASN42      -0.0877
     19  N         14.1820   97.3360  184.9620 N.3    59  LYS59      -0.1231
     20  CA        15.1140   96.6540  185.8380 C.3    59  LYS59       0.1693
     21  C         15.6810   95.4810  185.0310 C.2    59  LYS59       0.2592
     22  O         15.2340   95.2290  183.9200 O.2    59  LYS59      -0.2718
     23  CB        14.3880   96.1590  187.0800 C.3    59  LYS59       0.0285
     24  CG        15.3010   95.4370  188.0610 C.3    59  LYS59       0.0035
     25  CD        16.4320   96.3160  188.6030 C.3    59  LYS59       0.0206
     26  CE        17.3130   95.5160  189.5410 C.3    59  LYS59       0.1093
     27  NZ        17.8640   94.3160  188.8360 N.3    59  LYS59      -0.1314
     28  N         16.6730   94.7710  185.5490 N.am   60  PHE60      -0.1962
     29  CA        17.2070   93.6580  184.7760 C.3    60  PHE60       0.1771
     30  C         16.1690   92.5800  184.6530 C.2    60  PHE60       0.2619
     31  O         16.0620   91.9240  183.6170 O.2    60  PHE60      -0.2715
     32  CB        18.4160   93.0520  185.4450 C.3    60  PHE60       0.0574
     33  CG        19.5790   93.9570  185.4910 C.ar   60  PHE60      -0.0200
     34  CD1       19.6160   95.0020  186.3990 C.ar   60  PHE60      -0.0042
     35  CD2       20.6340   93.7870  184.6060 C.ar   60  PHE60      -0.0042
     36  CE1       20.6910   95.8670  186.4190 C.ar   60  PHE60      -0.0003
     37  CE2       21.7120   94.6510  184.6210 C.ar   60  PHE60      -0.0003
     38  CZ        21.7410   95.6890  185.5250 C.ar   60  PHE60      -0.0000
     39  N         15.4290   92.3950  185.7420 N.am   61  GLU61      -0.1977
     40  CA        14.3710   91.4060  185.8230 C.3    61  GLU61       0.1602
     41  C         13.4680   91.4810  184.6020 C.2    61  GLU61       0.2287
     42  O         12.8460   90.4960  184.2140 O.2    61  GLU61      -0.2864
     43  CB        13.5520   91.6270  187.1040 C.3    61  GLU61       0.0415
     44  CG        14.2140   91.0780  188.3780 C.3    61  GLU61       0.1163
     45  CD        15.4270   91.8820  188.8530 C.2    61  GLU61       0.3649
     46  OE1       15.2360   93.0160  189.3410 O.co2  61  GLU61      -0.2457
     47  OE2       16.5730   91.3810  188.7470 O.co2  61  GLU61      -0.2457
     48  N         14.3780   91.7720  181.5580 N.3    63  SER63      -0.1202
     49  CA        14.9400   91.1740  180.3530 C.3    63  SER63       0.2020
     50  C         14.1080   89.9380  180.0920 C.2    63  SER63       0.2619
     51  O         13.2900   89.5730  180.9190 O.2    63  SER63      -0.2717
     52  CB        16.3950   90.7700  180.5790 C.3    63  SER63       0.2103
     53  OG        17.2140   91.8980  180.8130 O.3    63  SER63      -0.2182
     54  N         14.2950   89.2930  178.9490 N.am   64  GLY64      -0.1956
     55  CA        13.5290   88.0850  178.7010 C.3    64  GLY64       0.1869
     56  C         12.7030   87.9120  177.4370 C.2    64  GLY64       0.2309
     57  O         12.7380   88.7180  176.5030 O.2    64  GLY64      -0.2863
     58  N         16.9390   92.3930  176.0980 N.3    82  GLU82      -0.1231
     59  CA        18.0700   92.3480  177.0240 C.3    82  GLU82       0.1699
     60  C         18.3610   93.7130  177.6340 C.2    82  GLU82       0.2592
     61  O         18.4430   94.7050  176.9190 O.2    82  GLU82      -0.2718
     62  CB        19.3180   91.8280  176.3070 C.3    82  GLU82       0.0402
     63  CG        19.1150   90.4730  175.6380 C.3    82  GLU82       0.1161
     64  CD        20.2940   90.0410  174.7850 C.2    82  GLU82       0.3649
     65  OE1       21.3950   89.8420  175.3530 O.co2  82  GLU82      -0.2457
     66  OE2       20.1120   89.9030  173.5500 O.co2  82  GLU82      -0.2457
     67  N         18.5140   93.7560  178.9570 N.am   83  VAL83      -0.1966
     68  CA        18.8000   95.0000  179.6630 C.3    83  VAL83       0.1727
     69  C         20.2630   95.0310  180.1080 C.2    83  VAL83       0.2616
     70  O         20.6940   94.1950  180.9010 O.2    83  VAL83      -0.2715
     71  CB        17.9040   95.1440  180.9000 C.3    83  VAL83       0.0290
     72  CG1       18.1810   96.4570  181.5870 C.3    83  VAL83       0.0023
     73  CG2       16.4570   95.0650  180.4990 C.3    83  VAL83       0.0023
     74  N         21.0180   96.0070  179.6100 N.am   84  PHE84      -0.1960
     75  CA        22.4390   96.1260  179.9260 C.3    84  PHE84       0.1771
     76  C         22.8070   97.2880  180.8250 C.2    84  PHE84       0.2620
     77  O         21.9890   98.1520  181.1160 O.2    84  PHE84      -0.2715
     78  CB        23.2490   96.3080  178.6530 C.3    84  PHE84       0.0574
     79  CG        23.1170   95.1960  177.6750 C.ar   84  PHE84      -0.0200
     80  CD1       21.9040   94.9100  177.0960 C.ar   84  PHE84      -0.0042
     81  CD2       24.2300   94.4590  177.2980 C.ar   84  PHE84      -0.0042
     82  CE1       21.7970   93.9080  176.1490 C.ar   84  PHE84      -0.0003
     83  CE2       24.1350   93.4570  176.3530 C.ar   84  PHE84      -0.0003
     84  CZ        22.9170   93.1790  175.7760 C.ar   84  PHE84      -0.0000
     85  N         24.0750   97.2930  181.2280 N.am   85  SER85      -0.1950
     86  CA        24.6760   98.3420  182.0540 C.3    85  SER85       0.1924
     87  C         26.1620   98.4120  181.7600 C.2    85  SER85       0.2314
     88  O         26.9690   97.8360  182.4800 O.2    85  SER85      -0.2863
     89  CB        24.5150   98.0720  183.5370 C.3    85  SER85       0.2116
     90  OG        25.4160   98.9030  184.2490 O.3    85  SER85      -0.2180
     91  N         29.8280   95.7930  173.3630 N.3   163  GLU163     -0.1301
     92  CA        29.9450   94.3710  173.0690 C.3   163  GLU163      0.1252
     93  C         29.4620   94.0590  171.6570 C.3   163  GLU163      0.2009
     94  O         28.6010   94.9020  171.2530 O.3   163  GLU163     -0.2188
     95  CB        29.1690   93.5470  174.0970 C.3   163  GLU163      0.0335
     96  CG        29.6490   93.7290  175.5270 C.3   163  GLU163      0.1156
     97  CD        28.8500   92.9060  176.5190 C.2   163  GLU163      0.3649
     98  OE1       27.9250   92.1870  176.0860 O.co2 163  GLU163     -0.2457
     99  OE2       29.1480   92.9800  177.7290 O.co2 163  GLU163     -0.2457
@<TRIPOS>BOND
     1    94    93    1
     2    93    92    1
     3    92    91    1
     4    92    95    1
     5    66    64   ar
     6    95    96    1
     7    64    65   ar
     8    64    63    1
     9    96    97    1
    10    63    62    1
    11    84    82   ar
    12    84    83   ar
    13    98    97   ar
    14    58    59    1
    15    82    80   ar
    16    62    59    1
    17    83    81   ar
    18    57    56    2
    19    97    99   ar
    20    61    60    2
    21    59    60    1
    22    80    79   ar
    23    81    79   ar
    24    56    55    1
    25    60    67   am
    26    79    78    1
    27    78    75    1
    28    55    54    1
    29    54    50   am
    30    67    68    1
    31    74    75    1
    32    74    69   am
    33    68    69    1
    34    68    71    1
    35     1     2    1
    36    11    12    1
    37    11     3   am
    38    75    76    1
    39    50    49    1
    40    50    51    2
    41    69    70    2
    42     2     3    1
    43     2     5    1
    44    12    13    1
    45    12    15    1
    46    17    16    2
    47    49    52    1
    48    49    48    1
    49    13    14    2
    50    73    71    1
    51    52    53    1
    52     7     9   ar
    53     7     6   ar
    54     3     4    2
    55    76    77    2
    56    76    85   am
    57    71    72    1
    58    16    15    1
    59    16    18   am
    60     5     6    1
    61     9    10   ar
    62    85    86    1
    63     6     8   ar
    64    87    86    1
    65    87    88    2
    66    86    89    1
    67    10     8   ar
    68    89    90    1
    69    31    30    2
    70    22    21    2
    71    42    41    2
    72    41    40    1
    73    35    37   ar
    74    35    33   ar
    75    37    38   ar
    76    30    29    1
    77    30    39   am
    78    29    32    1
    79    29    28    1
    80    19    20    1
    81    21    28   am
    82    21    20    1
    83    32    33    1
    84    33    34   ar
    85    38    36   ar
    86    39    40    1
    87    40    43    1
    88    20    23    1
    89    34    36   ar
    90    23    24    1
    91    43    44    1
    92    24    25    1
    93    44    45    1
    94    25    26    1
    95    47    45   ar
    96    27    26    1
    97    45    46   ar
