@<TRIPOS>MOLECULE
tmp/1f6aC00.pdb
 92 83 0 0 0
SMALL
GASTEIGER

@<TRIPOS>ATOM
      1  N         37.1600  114.9760  182.1070 N.3     6  ARG6       -0.1245
      2  CA        37.8660  113.7310  181.8130 C.3     6  ARG6        0.1563
      3  C         37.3780  112.7270  182.8410 C.2     6  ARG6        0.2260
      4  O         37.0950  113.0870  183.9790 O.2     6  ARG6       -0.2867
      5  CB        39.3890  113.9360  181.9350 C.3     6  ARG6        0.0307
      6  CG        40.2450  112.6970  181.6330 C.3     6  ARG6        0.0489
      7  CD        41.7450  112.9860  181.4570 C.3     6  ARG6        0.2205
      8  NE        42.3770  112.0280  180.5450 N.pl3   6  ARG6       -0.0865
      9  CZ        42.7570  112.3260  179.3060 C.cat   6  ARG6        0.5346
     10  NH1       42.5750  113.5530  178.8410 N.pl3   6  ARG6        0.1354
     11  NH2       43.2990  111.4010  178.5250 N.pl3   6  ARG6        0.1354
     12  N         45.1480  102.7980  187.6260 N.3    11  TYR11      -0.1241
     13  CA        46.4170  102.1950  187.2980 C.3    11  TYR11       0.1605
     14  C         46.8350  101.2850  188.4390 C.2    11  TYR11       0.2264
     15  O         46.3620  101.4450  189.5580 O.2    11  TYR11      -0.2867
     16  CB        47.4220  103.3060  187.1010 C.3    11  TYR11       0.0534
     17  CG        46.9760  104.3760  186.1200 C.ar   11  TYR11      -0.0201
     18  CD1       46.7550  105.6770  186.5360 C.ar   11  TYR11      -0.0009
     19  CD2       46.8730  104.1040  184.7650 C.ar   11  TYR11      -0.0009
     20  CE1       46.4560  106.6870  185.6250 C.ar   11  TYR11       0.0417
     21  CE2       46.5750  105.1040  183.8510 C.ar   11  TYR11       0.0417
     22  CZ        46.3730  106.3960  184.2870 C.ar   11  TYR11       0.1957
     23  OH        46.1340  107.4080  183.3790 O.3    11  TYR11      -0.2866
     24  N         50.4560   99.5600  189.9120 N.3    13  SER13      -0.1217
     25  CA        51.8860   99.3020  189.8220 C.3    13  SER13       0.1889
     26  C         52.3040   97.9470  190.3580 C.2    13  SER13       0.2288
     27  O         51.6980   97.4290  191.2770 O.2    13  SER13      -0.2866
     28  CB        52.6560  100.4050  190.5490 C.3    13  SER13       0.2089
     29  OG        54.0410  100.3460  190.2480 O.3    13  SER13      -0.2183
     30  N         46.2720  103.1740  191.8640 N.3    31  LEU31      -0.1245
     31  CA        46.1050  104.6160  191.8680 C.3    31  LEU31       0.1561
     32  C         44.9540  105.0630  190.9860 C.2    31  LEU31       0.2260
     33  O         44.9560  104.8300  189.7840 O.2    31  LEU31      -0.2867
     34  CB        47.4040  105.2790  191.4100 C.3    31  LEU31       0.0270
     35  CG        47.3220  106.7160  190.9050 C.3    31  LEU31       0.0019
     36  CD1       46.7160  107.5660  191.9630 C.3    31  LEU31       0.0001
     37  CD2       48.7030  107.2290  190.5490 C.3    31  LEU31       0.0001
     38  N         42.6770  108.1460  189.4500 N.3    33  VAL33      -0.1231
     39  CA        42.7710  109.5740  189.1560 C.3    33  VAL33       0.1692
     40  C         41.5250  110.1310  188.4580 C.2    33  VAL33       0.2592
     41  O         40.6950  109.3890  187.9370 O.2    33  VAL33      -0.2718
     42  CB        44.0070  109.8530  188.2720 C.3    33  VAL33       0.0266
     43  CG1       44.9740  108.6900  188.3870 C.3    33  VAL33       0.0020
     44  CG2       43.5950  110.0130  186.8200 C.3    33  VAL33       0.0020
     45  N         41.4220  111.4520  188.4330 N.am   34  ASP34      -0.1974
     46  CA        40.3080  112.1420  187.8040 C.3    34  ASP34       0.1709
     47  C         38.9450  111.9460  188.4580 C.2    34  ASP34       0.2293
     48  O         37.9140  112.1460  187.8160 O.2    34  ASP34      -0.2864
     49  CB        40.2270  111.7940  186.3240 C.3    34  ASP34       0.1436
     50  CG        41.3770  112.3800  185.5270 C.2    34  ASP34       0.3671
     51  OD1       41.7510  113.5420  185.8040 O.co2  34  ASP34      -0.2456
     52  OD2       41.8930  111.6840  184.6200 O.co2  34  ASP34      -0.2456
     53  N         43.9660  112.4780  198.1780 N.3    62  GLU62      -0.1245
     54  CA        44.5250  113.8170  198.0520 C.3    62  GLU62       0.1567
     55  C         43.8260  114.7270  197.0550 C.2    62  GLU62       0.2260
     56  O         43.9390  114.5190  195.8550 O.2    62  GLU62      -0.2867
     57  CB        46.0050  113.7480  197.6380 C.3    62  GLU62       0.0388
     58  CG        46.9010  112.8280  198.4620 C.3    62  GLU62       0.1160
     59  CD        48.3630  112.8960  198.0280 C.2    62  GLU62       0.3649
     60  OE1       48.6380  112.7600  196.8140 O.co2  62  GLU62      -0.2457
     61  OE2       49.2370  113.0800  198.9030 O.co2  62  GLU62      -0.2457
     62  N         43.6490  117.2180  194.5260 N.3    64  GLN64      -0.1245
     63  CA        44.7300  117.7870  193.7250 C.3    64  GLN64       0.1566
     64  C         44.4610  119.2370  193.3680 C.2    64  GLN64       0.2260
     65  O         43.3480  119.7430  193.5590 O.2    64  GLN64      -0.2867
     66  CB        44.9200  116.9910  192.4480 C.3    64  GLN64       0.0367
     67  CG        45.1690  115.5370  192.6840 C.3    64  GLN64       0.0905
     68  CD        46.4540  115.3070  193.3990 C.2    64  GLN64       0.2608
     69  OE1       46.6040  115.6810  194.5560 O.2    64  GLN64      -0.2717
     70  NE2       47.4120  114.6930  192.7120 N.am   64  GLN64      -0.0878
     71  N         44.3570  120.6940  190.3380 N.3    66  ASN66      -0.1240
     72  CA        43.4370  120.8970  189.2190 C.3    66  ASN66       0.1653
     73  C         41.9520  120.5830  189.4790 C.2    66  ASN66       0.2266
     74  O         41.2270  120.1890  188.5720 O.2    66  ASN66      -0.2867
     75  CB        43.9240  120.1380  187.9690 C.3    66  ASN66       0.1155
     76  CG        43.9570  118.6320  188.1540 C.2    66  ASN66       0.2627
     77  OD1       43.1100  118.0700  188.8280 O.2    66  ASN66      -0.2716
     78  ND2       44.9270  117.9820  187.5160 N.am   66  ASN66      -0.0877
     79  N         40.5640  118.1570  190.5740 N.3    68  THR68      -0.1218
     80  CA        40.2740  116.7300  190.6260 C.3    68  THR68       0.1862
     81  C         40.4360  116.1980  192.0480 C.2    68  THR68       0.2287
     82  O         40.4950  116.9640  193.0010 O.2    68  THR68      -0.2866
     83  CB        41.2060  115.9320  189.7050 C.3    68  THR68       0.1770
     84  OG1       40.7020  114.6000  189.5580 O.3    68  THR68      -0.2211
     85  CG2       42.5990  115.8480  190.3050 C.3    68  THR68       0.0375
     86  N         42.3370  112.4930  193.8680 N.3    70  THR70      -0.1218
     87  CA        43.0200  111.2240  193.7060 C.3    70  THR70       0.1862
     88  C         42.8440  110.3030  194.8650 C.2    70  THR70       0.2287
     89  O         42.5860  110.7370  195.9730 O.2    70  THR70      -0.2866
     90  CB        44.5120  111.4410  193.5430 C.3    70  THR70       0.1770
     91  OG1       44.7560  112.1250  192.3150 O.3    70  THR70      -0.2211
     92  CG2       45.2460  110.1360  193.5270 C.3    70  THR70       0.0375
@<TRIPOS>BOND
     1    11     9    1
     2    10     9    1
     3     9     8    2
     4     8     7    1
     5     7     6    1
     6     6     5    1
     7     2     5    1
     8     2     1    1
     9     2     3    1
    10     3     4    2
    11    23    22    1
    12    21    22   ar
    13    21    19   ar
    14    22    20   ar
    15    52    50   ar
    16    19    17   ar
    17    50    51   ar
    18    50    49    1
    19    20    18   ar
    20    17    18   ar
    21    17    16    1
    22    49    46    1
    23    44    42    1
    24    16    13    1
    25    13    12    1
    26    13    14    1
    27    78    76   am
    28    46    45    1
    29    46    47    1
    30    48    47    2
    31    41    40    2
    32    75    76    1
    33    75    72    1
    34    76    77    2
    35    42    43    1
    36    42    39    1
    37    45    40   am
    38    14    15    2
    39    40    39    1
    40    74    73    2
    41    39    38    1
    42    72    73    1
    43    72    71    1
    44    84    83    1
    45    83    85    1
    46    83    80    1
    47    33    32    2
    48    25    24    1
    49    25    26    1
    50    25    28    1
    51    29    28    1
    52    26    27    2
    53    37    35    1
    54    79    80    1
    55    80    81    1
    56    35    34    1
    57    35    36    1
    58    32    31    1
    59    34    31    1
    60    30    31    1
    61    81    82    2
    62    91    90    1
    63    66    67    1
    64    66    63    1
    65    67    68    1
    66    70    68   am
    67    64    65    2
    68    64    63    1
    69    68    69    2
    70    92    90    1
    71    90    87    1
    72    87    86    1
    73    87    88    1
    74    63    62    1
    75    88    89    2
    76    56    55    2
    77    60    59   ar
    78    55    54    1
    79    57    54    1
    80    57    58    1
    81    59    58    1
    82    59    61   ar
    83    54    53    1
