@<TRIPOS>MOLECULE
tmp/1f6aC01.pdb
 77 76 0 0 0
SMALL
GASTEIGER

@<TRIPOS>ATOM
      1  N         35.0640  117.5390  180.6440 N.3     5  PRO5       -0.2102
      2  CA        35.5950  116.7780  181.7710 C.3     5  PRO5        0.1504
      3  C         36.2220  115.4800  181.3140 C.2     5  PRO5        0.2576
      4  O         35.8580  114.9510  180.2720 O.2     5  PRO5       -0.2718
      5  CB        34.3630  116.5480  182.6330 C.3     5  PRO5        0.0282
      6  CG        33.4020  117.6220  182.2040 C.3     5  PRO5        0.0208
      7  CD        33.6000  117.6040  180.7240 C.3     5  PRO5        0.0893
      8  N         37.1600  114.9760  182.1070 N.am    6  ARG6       -0.1966
      9  CA        37.8660  113.7310  181.8130 C.3     6  ARG6        0.1729
     10  C         37.3780  112.7270  182.8410 C.2     6  ARG6        0.2617
     11  O         37.0950  113.0870  183.9790 O.2     6  ARG6       -0.2715
     12  CB        39.3890  113.9360  181.9350 C.3     6  ARG6        0.0348
     13  CG        40.2450  112.6970  181.6330 C.3     6  ARG6        0.0492
     14  CD        41.7450  112.9860  181.4570 C.3     6  ARG6        0.2205
     15  NE        42.3770  112.0280  180.5450 N.pl3   6  ARG6       -0.0865
     16  CZ        42.7570  112.3260  179.3060 C.cat   6  ARG6        0.5346
     17  NH1       42.5750  113.5530  178.8410 N.pl3   6  ARG6        0.1354
     18  NH2       43.2990  111.4010  178.5250 N.pl3   6  ARG6        0.1354
     19  N         37.2730  111.4730  182.4440 N.am    7  GLY7       -0.1940
     20  CA        36.7590  110.4640  183.3430 C.3     7  GLY7        0.2014
     21  C         37.7900  109.7530  184.1650 C.2     7  GLY7        0.2638
     22  O         38.9790  109.8330  183.8800 O.2     7  GLY7       -0.2714
     23  N         37.3260  109.0340  185.1790 N.am    8  VAL8       -0.1977
     24  CA        38.2200  108.3070  186.0630 C.3     8  VAL8        0.1596
     25  C         39.0530  107.3020  185.3280 C.2     8  VAL8        0.2287
     26  O         38.5540  106.5840  184.4630 O.2     8  VAL8       -0.2864
     27  CB        37.4700  107.5530  187.1530 C.3     8  VAL8        0.0276
     28  CG1       38.3260  106.4550  187.6930 C.3     8  VAL8        0.0022
     29  CG2       37.1360  108.4710  188.2640 C.3     8  VAL8        0.0022
     30  N         41.4220  111.4520  188.4330 N.3    34  ASP34      -0.1239
     31  CA        40.3080  112.1420  187.8040 C.3    34  ASP34       0.1674
     32  C         38.9450  111.9460  188.4580 C.2    34  ASP34       0.2266
     33  O         37.9140  112.1460  187.8160 O.2    34  ASP34      -0.2867
     34  CB        40.2270  111.7940  186.3240 C.3    34  ASP34       0.1410
     35  CG        41.3770  112.3800  185.5270 C.2    34  ASP34       0.3668
     36  OD1       41.7510  113.5420  185.8040 O.co2  34  ASP34      -0.2456
     37  OD2       41.8930  111.6840  184.6200 O.co2  34  ASP34      -0.2456
     38  N         35.9620  112.9740  191.1420 N.3    36  ALA36      -0.1231
     39  CA        35.4430  114.2970  191.4750 C.3    36  ALA36       0.1679
     40  C         34.4980  114.2280  192.6560 C.2    36  ALA36       0.2434
     41  O         33.7290  113.2730  192.7970 O.2    36  ALA36      -0.2733
     42  CB        34.7310  114.9060  190.2800 C.3    36  ALA36       0.0304
     43  N         34.5480  115.2520  193.5240 N.am   37  PRO37      -0.2729
     44  CA        33.7100  115.3600  194.7230 C.3    37  PRO37       0.1401
     45  C         32.3230  114.7340  194.5490 C.2    37  PRO37       0.2269
     46  O         31.4360  115.2980  193.9160 O.2    37  PRO37      -0.2865
     47  CB        33.6660  116.8600  194.9580 C.3    37  PRO37       0.0296
     48  CG        35.0870  117.2540  194.6160 C.3    37  PRO37       0.0237
     49  CD        35.3910  116.4550  193.3540 C.3    37  PRO37       0.0939
     50  N         32.3340  103.6490  191.3890 N.3    94  HIS94      -0.1241
     51  CA        31.8400  105.0090  191.6270 C.3    94  HIS94       0.1621
     52  C         30.3440  105.0080  191.3190 C.2    94  HIS94       0.2264
     53  O         29.9200  104.6100  190.2360 O.2    94  HIS94      -0.2867
     54  CB        32.5590  106.0020  190.7180 C.3    94  HIS94       0.0745
     55  CG        32.1540  107.4220  190.9310 C.ar   94  HIS94       0.0817
     56  ND1       31.0520  107.7790  191.6750 N.ar   94  HIS94      -0.2268
     57  CD2       32.6980  108.5800  190.4850 C.ar   94  HIS94       0.1154
     58  CE1       30.9350  109.0950  191.6810 C.ar   94  HIS94       0.1986
     59  NE2       31.9220  109.6060  190.9660 N.ar   94  HIS94      -0.2212
     60  N         28.1230  107.0050  190.1570 N.3    96  HIS96      -0.1226
     61  CA        27.7300  107.5020  188.8480 C.3    96  HIS96       0.1752
     62  C         28.3880  106.8140  187.6540 C.2    96  HIS96       0.2595
     63  O         28.5680  107.4330  186.6120 O.2    96  HIS96      -0.2718
     64  CB        28.0100  108.9990  188.7540 C.3    96  HIS96       0.0759
     65  CG        27.7480  109.7430  190.0190 C.ar   96  HIS96       0.0818
     66  ND1       28.0680  111.0720  190.1740 N.ar   96  HIS96      -0.2268
     67  CD2       27.2440  109.3360  191.2070 C.ar   96  HIS96       0.1154
     68  CE1       27.7780  111.4520  191.4060 C.ar   96  HIS96       0.1986
     69  NE2       27.2770  110.4170  192.0540 N.ar   96  HIS96      -0.2212
     70  N         28.7580  105.5480  187.7760 N.am   97  LEU97      -0.1980
     71  CA        29.3710  104.8840  186.6320 C.3    97  LEU97       0.1596
     72  C         28.6800  103.5840  186.2370 C.2    97  LEU97       0.2287
     73  O         28.1610  102.8580  187.0770 O.2    97  LEU97      -0.2864
     74  CB        30.8570  104.6110  186.8930 C.3    97  LEU97       0.0297
     75  CG        31.7710  105.8250  187.0670 C.3    97  LEU97       0.0022
     76  CD1       33.1790  105.3680  187.3660 C.3    97  LEU97       0.0001
     77  CD2       31.7460  106.6770  185.8270 C.3    97  LEU97       0.0001
@<TRIPOS>BOND
     1    18    16    1
     2    17    16    1
     3    16    15    2
     4     4     3    2
     5    15    14    1
     6     1     7    1
     7     1     2    1
     8     7     6    1
     9     3     2    1
    10     3     8   am
    11    14    13    1
    12    13    12    1
    13     2     5    1
    14     9    12    1
    15     9     8    1
    16     9    10    1
    17     6     5    1
    18    19    10   am
    19    19    20    1
    20    10    11    2
    21    20    21    1
    22    22    21    2
    23    21    23   am
    24    26    25    2
    25    37    35   ar
    26    23    24    1
    27    25    24    1
    28    35    36   ar
    29    35    34    1
    30    77    75    1
    31    24    27    1
    32    72    71    1
    33    72    73    2
    34    34    31    1
    35    63    62    2
    36    71    74    1
    37    71    70    1
    38    74    75    1
    39    75    76    1
    40    27    28    1
    41    27    29    1
    42    62    70   am
    43    62    61    1
    44    31    30    1
    45    31    32    1
    46    33    32    2
    47    64    61    1
    48    64    65    1
    49    61    60    1
    50    65    66   ar
    51    65    67   ar
    52    66    68   ar
    53    53    52    2
    54    42    39    1
    55    57    55   ar
    56    57    59   ar
    57    54    55    1
    58    54    51    1
    59    55    56   ar
    60    59    58   ar
    61    38    39    1
    62    67    69   ar
    63    52    51    1
    64    50    51    1
    65    68    69   ar
    66    39    40    1
    67    56    58   ar
    68    40    41    2
    69    40    43   am
    70    49    43    1
    71    49    48    1
    72    43    44    1
    73    46    45    2
    74    45    44    1
    75    48    47    1
    76    44    47    1
