@<TRIPOS>MOLECULE
tmp/1f6aB00.pdb
 107 98 0 0 0
SMALL
GASTEIGER

@<TRIPOS>ATOM
      1  N         42.4560  117.1480  165.4040 N.3    10  SER10      -0.1217
      2  CA        43.7140  117.7120  165.9000 C.3    10  SER10       0.1889
      3  C         44.7910  117.8060  164.8090 C.2    10  SER10       0.2288
      4  O         44.6730  117.1770  163.7600 O.2    10  SER10      -0.2866
      5  CB        44.2320  116.8950  167.0810 C.3    10  SER10       0.2089
      6  OG        44.2220  115.5120  166.7950 O.3    10  SER10      -0.2183
      7  N         49.3400  118.5550  164.2060 N.3    12  TYR12      -0.1241
      8  CA        50.6430  118.6550  164.8230 C.3    12  TYR12       0.1605
      9  C         51.6100  119.2900  163.8410 C.2    12  TYR12       0.2264
     10  O         51.5300  119.0480  162.6400 O.2    12  TYR12      -0.2867
     11  CB        51.1220  117.2690  165.2350 C.3    12  TYR12       0.0534
     12  CG        50.1500  116.5340  166.1320 C.ar   12  TYR12      -0.0201
     13  CD1       49.0140  115.9210  165.6140 C.ar   12  TYR12      -0.0009
     14  CD2       50.3470  116.4920  167.5030 C.ar   12  TYR12      -0.0009
     15  CE1       48.0980  115.2880  166.4400 C.ar   12  TYR12       0.0417
     16  CE2       49.4350  115.8670  168.3400 C.ar   12  TYR12       0.0417
     17  CZ        48.3100  115.2700  167.8040 C.ar   12  TYR12       0.1957
     18  OH        47.3830  114.6960  168.6480 O.3    12  TYR12      -0.2866
     19  N         55.6120  119.6510  163.3050 N.3    14  SER14      -0.1217
     20  CA        56.9640  119.2900  163.7120 C.3    14  SER14       0.1889
     21  C         58.0230  120.3060  163.3210 C.2    14  SER14       0.2288
     22  O         57.9180  120.9560  162.2860 O.2    14  SER14      -0.2866
     23  CB        57.3330  117.9250  163.1390 C.3    14  SER14       0.2089
     24  OG        58.5170  117.4310  163.7440 O.3    14  SER14      -0.2183
     25  N         50.8620  117.9340  160.3340 N.3    32  LEU32      -0.1245
     26  CA        50.1020  116.7000  160.2480 C.3    32  LEU32       0.1561
     27  C         48.7030  116.8360  160.8590 C.2    32  LEU32       0.2260
     28  O         48.5380  117.1140  162.0440 O.2    32  LEU32      -0.2867
     29  CB        50.8840  115.6020  160.9560 C.3    32  LEU32       0.0270
     30  CG        50.1160  114.3530  161.3710 C.3    32  LEU32       0.0019
     31  CD1       49.4350  113.7860  160.1750 C.3    32  LEU32       0.0001
     32  CD2       51.0370  113.3450  162.0020 C.3    32  LEU32       0.0001
     33  N         45.1020  115.0910  161.7590 N.3    34  VAL34      -0.1231
     34  CA        44.5200  113.7900  162.0400 C.3    34  VAL34       0.1692
     35  C         43.0320  113.8280  162.4240 C.2    34  VAL34       0.2592
     36  O         42.5040  114.8590  162.8140 O.2    34  VAL34      -0.2718
     37  CB        45.3050  113.1170  163.1630 C.3    34  VAL34       0.0266
     38  CG1       46.6260  113.7930  163.3120 C.3    34  VAL34       0.0020
     39  CG2       44.5630  113.1940  164.4300 C.3    34  VAL34       0.0020
     40  N         42.3740  112.6800  162.3240 N.am   35  ASP35      -0.1974
     41  CA        40.9630  112.5400  162.6570 C.3    35  ASP35       0.1709
     42  C         39.9780  113.2270  161.7260 C.2    35  ASP35       0.2293
     43  O         38.8380  113.4820  162.1120 O.2    35  ASP35      -0.2864
     44  CB        40.6970  112.9670  164.0920 C.3    35  ASP35       0.1436
     45  CG        41.2830  111.9990  165.1070 C.2    35  ASP35       0.3671
     46  OD1       41.1860  110.7720  164.9100 O.co2  35  ASP35      -0.2456
     47  OD2       41.8320  112.4640  166.1220 O.co2  35  ASP35      -0.2456
     48  N         46.3450  110.1430  153.3210 N.3    63  GLU63      -0.1245
     49  CA        46.2270  108.7050  153.5220 C.3    63  GLU63       0.1567
     50  C         45.0000  108.2310  154.3010 C.2    63  GLU63       0.2260
     51  O         44.9280  108.4350  155.5040 O.2    63  GLU63      -0.2867
     52  CB        47.4660  108.1680  154.2520 C.3    63  GLU63       0.0388
     53  CG        48.8120  108.5850  153.6790 C.3    63  GLU63       0.1160
     54  CD        49.9820  107.9400  154.4170 C.2    63  GLU63       0.3649
     55  OE1       50.0200  108.0200  155.6660 O.co2  63  GLU63      -0.2457
     56  OE2       50.8660  107.3580  153.7470 O.co2  63  GLU63      -0.2457
     57  N         43.2320  106.1730  156.6360 N.3    65  GLN65      -0.1231
     58  CA        43.7780  105.2480  157.6170 C.3    65  GLN65       0.1698
     59  C         42.8760  104.0620  157.8570 C.2    65  GLN65       0.2592
     60  O         41.7300  104.0570  157.4210 O.2    65  GLN65      -0.2718
     61  CB        44.0260  105.9550  158.9320 C.3    65  GLN65       0.0381
     62  CG        44.9100  107.1580  158.8190 C.3    65  GLN65       0.0905
     63  CD        46.3070  106.7990  158.4330 C.2    65  GLN65       0.2608
     64  OE1       46.5490  106.3420  157.3150 O.2    65  GLN65      -0.2717
     65  NE2       47.2510  106.9870  159.3540 N.am   65  GLN65      -0.0878
     66  N         43.3960  103.0690  158.5730 N.am   66  ARG66      -0.1966
     67  CA        42.6460  101.8530  158.8510 C.3    66  ARG66       0.1729
     68  C         41.4210  102.0830  159.7040 C.2    66  ARG66       0.2616
     69  O         40.3790  101.4830  159.4610 O.2    66  ARG66      -0.2715
     70  CB        43.5370  100.8040  159.5280 C.3    66  ARG66       0.0348
     71  CG        42.7980   99.5150  159.9030 C.3    66  ARG66       0.0492
     72  CD        43.2350   98.3090  159.0740 C.3    66  ARG66       0.2205
     73  NE        44.5940   97.8840  159.3950 N.pl3  66  ARG66      -0.0865
     74  CZ        45.1640   96.7820  158.9180 C.cat  66  ARG66       0.5346
     75  NH1       44.4920   95.9880  158.0940 N.pl3  66  ARG66       0.1354
     76  NH2       46.4080   96.4740  159.2670 N.pl3  66  ARG66       0.1354
     77  N         41.5320  102.9520  160.7020 N.am   67  ASN67      -0.1972
     78  CA        40.4000  103.1980  161.5910 C.3    67  ASN67       0.1688
     79  C         39.2860  104.0730  161.0440 C.2    67  ASN67       0.2292
     80  O         38.6100  104.7500  161.7880 O.2    67  ASN67      -0.2864
     81  CB        40.8670  103.7490  162.9530 C.3    67  ASN67       0.1181
     82  CG        41.5340  105.1170  162.8660 C.2    67  ASN67       0.2629
     83  OD1       41.1740  105.9550  162.0530 O.2    67  ASN67      -0.2716
     84  ND2       42.4900  105.3360  163.7610 N.am   67  ASN67      -0.0877
     85  N         39.2860  106.8220  159.7740 N.3    69  THR69      -0.1218
     86  CA        39.6420  108.2260  159.7120 C.3    69  THR69       0.1862
     87  C         40.2960  108.5730  158.3830 C.2    69  THR69       0.2287
     88  O         40.2050  107.8180  157.4220 O.2    69  THR69      -0.2866
     89  CB        40.6000  108.5990  160.8290 C.3    69  THR69       0.1770
     90  OG1       40.6960  110.0230  160.9040 O.3    69  THR69      -0.2211
     91  CG2       41.9760  108.0640  160.5570 C.3    69  THR69       0.0375
     92  N         43.9250  111.0270  157.1660 N.3    71  THR71      -0.1218
     93  CA        45.0330  111.9100  157.5220 C.3    71  THR71       0.1862
     94  C         45.5240  112.7750  156.3730 C.2    71  THR71       0.2287
     95  O         45.3490  112.4490  155.2080 O.2    71  THR71      -0.2866
     96  CB        46.2260  111.1060  158.0250 C.3    71  THR71       0.1770
     97  OG1       45.8930  110.4770  159.2580 O.3    71  THR71      -0.2211
     98  CG2       47.4090  111.9980  158.2480 C.3    71  THR71       0.0375
     99  N         65.3650  109.8340  174.8200 N.3   167  GLN167     -0.1245
    100  CA        64.8060  111.1660  174.7690 C.3   167  GLN167      0.1566
    101  C         65.4980  112.0120  175.8330 C.2   167  GLN167      0.2260
    102  O         65.8690  111.5090  176.9000 O.2   167  GLN167     -0.2867
    103  CB        63.2960  111.1150  175.0330 C.3   167  GLN167      0.0367
    104  CG        62.4860  110.3340  174.0050 C.3   167  GLN167      0.0905
    105  CD        62.6600  110.8600  172.5840 C.2   167  GLN167      0.2608
    106  OE1       62.6520  112.0700  172.3500 O.2   167  GLN167     -0.2717
    107  NE2       62.8040  109.9470  171.6270 N.am  167  GLN167     -0.0878
@<TRIPOS>BOND
     1    48    49    1
     2    49    52    1
     3    49    50    1
     4    53    52    1
     5    53    54    1
     6    56    54   ar
     7    50    51    2
     8    54    55   ar
     9    95    94    2
    10    94    93    1
    11    57    58    1
    12    92    93    1
    13    64    63    2
    14    60    59    2
    15    88    87    2
    16    93    96    1
    17    58    59    1
    18    58    61    1
    19    59    66   am
    20    96    98    1
    21    96    97    1
    22    75    74    1
    23    87    86    1
    24    63    62    1
    25    63    65   am
    26    66    67    1
    27    62    61    1
    28    67    70    1
    29    67    68    1
    30    74    76    1
    31    74    73    2
    32    72    73    1
    33    72    71    1
    34    69    68    2
    35    70    71    1
    36    68    77   am
    37    86    85    1
    38    86    89    1
    39    31    30    1
    40    26    25    1
    41    26    27    1
    42    26    29    1
    43    91    89    1
    44    77    78    1
    45    89    90    1
    46    27    28    2
    47    29    30    1
    48    79    78    1
    49    79    80    2
    50    30    32    1
    51    78    81    1
    52    42    43    2
    53    42    41    1
    54    33    34    1
    55    34    35    1
    56    34    37    1
    57    83    82    2
    58    22    21    2
    59    40    35   am
    60    40    41    1
    61    35    36    2
    62    10     9    2
    63    41    44    1
    64    82    81    1
    65    82    84   am
    66    23    20    1
    67    23    24    1
    68    37    38    1
    69    37    39    1
    70    19    20    1
    71    21    20    1
    72     4     3    2
    73     9     8    1
    74    44    45    1
    75     7     8    1
    76     3     2    1
    77     8    11    1
    78    46    45   ar
    79    45    47   ar
    80    11    12    1
    81     1     2    1
    82    13    12   ar
    83    13    15   ar
    84     2     5    1
    85    12    14   ar
    86    15    17   ar
    87     6     5    1
    88    14    16   ar
    89    17    16   ar
    90    17    18    1
    91   107   105   am
    92   106   105    2
    93   105   104    1
    94   104   103    1
    95   100    99    1
    96   100   103    1
    97   100   101    1
    98   101   102    2
