@<TRIPOS>MOLECULE
tmp/1f6mE01.pdb
 234 222 0 0 0
SMALL
GASTEIGER

@<TRIPOS>ATOM
      1  N         16.1340    5.1030   51.5390 N.3    42  GLN42      -0.1245
      2  CA        17.2310    5.7270   50.8060 C.3    42  GLN42       0.1566
      3  C         18.3620    4.7700   50.5330 C.2    42  GLN42       0.2260
      4  O         18.9650    4.8060   49.4640 O.2    42  GLN42      -0.2867
      5  CB        17.7880    6.9020   51.5870 C.3    42  GLN42       0.0367
      6  CG        16.7640    7.9460   51.9330 C.3    42  GLN42       0.0905
      7  CD        17.3520    9.0310   52.7870 C.2    42  GLN42       0.2608
      8  OE1       18.3850    9.6060   52.4500 O.2    42  GLN42      -0.2717
      9  NE2       16.7050    9.3170   53.9040 N.am   42  GLN42      -0.0878
     10  N         21.7960    3.3350   47.0810 N.3    46  THR46      -0.1218
     11  CA        23.2430    3.3510   47.2140 C.3    46  THR46       0.1862
     12  C         23.8270    1.9790   46.9300 C.2    46  THR46       0.2287
     13  O         23.0920    1.0230   46.6640 O.2    46  THR46      -0.2866
     14  CB        23.6600    3.7500   48.6280 C.3    46  THR46       0.1770
     15  OG1       25.0570    4.0540   48.6430 O.3    46  THR46      -0.2211
     16  CG2       23.3980    2.6180   49.6040 C.3    46  THR46       0.0375
     17  N         29.6090    1.6290   57.0950 N.3    51  ASN51      -0.1240
     18  CA        29.5550    1.9520   58.5100 C.3    51  ASN51       0.1653
     19  C         28.3850    1.3670   59.2740 C.2    51  ASN51       0.2266
     20  O         27.9790    1.8840   60.3160 O.2    51  ASN51      -0.2867
     21  CB        29.6150    3.4640   58.6860 C.3    51  ASN51       0.1155
     22  CG        28.5570    4.1780   57.8940 C.2    51  ASN51       0.2627
     23  OD1       27.9450    3.6030   56.9910 O.2    51  ASN51      -0.2716
     24  ND2       28.3350    5.4460   58.2200 N.am   51  ASN51      -0.0877
     25  N         16.4850   16.2190   47.5720 N.3   117  ARG117     -0.1245
     26  CA        16.2150   17.6390   47.4200 C.3   117  ARG117      0.1563
     27  C         16.7070   18.1660   46.0750 C.2   117  ARG117      0.2260
     28  O         17.7060   17.6820   45.5420 O.2   117  ARG117     -0.2867
     29  CB        16.8840   18.4010   48.5700 C.3   117  ARG117      0.0307
     30  CG        16.8630   19.9100   48.4380 C.3   117  ARG117      0.0489
     31  CD        16.8780   20.5840   49.8030 C.3   117  ARG117      0.2205
     32  NE        18.1660   20.4860   50.4810 N.pl3 117  ARG117     -0.0865
     33  CZ        18.3650   20.8680   51.7390 C.cat 117  ARG117      0.5346
     34  NH1       17.3560   21.3660   52.4440 N.pl3 117  ARG117      0.1354
     35  NH2       19.5670   20.7620   52.2950 N.pl3 117  ARG117      0.1354
     36  N         17.2130   21.8720   43.4330 N.3   119  LEU119     -0.1245
     37  CA        17.4940   23.3100   43.4030 C.3   119  LEU119      0.1561
     38  C         16.2780   24.1630   43.0820 C.2   119  LEU119      0.2260
     39  O         16.0600   25.2060   43.7050 O.2   119  LEU119     -0.2867
     40  CB        18.5850   23.6050   42.3770 C.3   119  LEU119      0.0270
     41  CG        19.9480   22.9930   42.6880 C.3   119  LEU119      0.0019
     42  CD1       20.8920   23.1920   41.5170 C.3   119  LEU119      0.0001
     43  CD2       20.4960   23.6290   43.9540 C.3   119  LEU119      0.0001
     44  N         26.6950   17.5630   41.7040 N.3   151  ILE151     -0.1231
     45  CA        26.5840   18.8290   42.4110 C.3   151  ILE151      0.1692
     46  C         26.1610   18.6470   43.8660 C.2   151  ILE151      0.2593
     47  O         25.0910   18.1130   44.1580 O.2   151  ILE151     -0.2718
     48  CB        25.5980   19.7920   41.6420 C.3   151  ILE151      0.0266
     49  CG1       25.1570   20.9440   42.5390 C.3   151  ILE151      0.0019
     50  CG2       24.3840   19.0350   41.1430 C.3   151  ILE151      0.0020
     51  CD1       24.2070   21.8780   41.8530 C.3   151  ILE151      0.0001
     52  N         27.0260   19.1030   44.7700 N.am  152  GLY152     -0.1942
     53  CA        26.7790   18.9830   46.1980 C.3   152  GLY152      0.2014
     54  C         28.1000   18.7050   46.8970 C.2   152  GLY152      0.2639
     55  O         29.0410   18.2010   46.2690 O.2   152  GLY152     -0.2714
     56  N         28.1860   19.0200   48.1870 N.am  153  GLY153     -0.1939
     57  CA        29.4310   18.7920   48.9000 C.3   153  GLY153      0.2014
     58  C         29.3570   17.7890   50.0370 C.2   153  GLY153      0.2639
     59  O         30.3140   17.6610   50.8090 O.2   153  GLY153     -0.2714
     60  N         28.2340   17.0790   50.1420 N.am  154  GLY154     -0.1939
     61  CA        28.0640   16.0930   51.1970 C.3   154  GLY154      0.2014
     62  C         28.5150   14.6860   50.8280 C.2   154  GLY154      0.2639
     63  O         29.1410   14.4660   49.7830 O.2   154  GLY154     -0.2714
     64  N         28.1930   13.7290   51.6930 N.am  155  ASN155     -0.1958
     65  CA        28.5600   12.3380   51.4710 C.3   155  ASN155      0.1819
     66  C         27.9920   11.7810   50.1770 C.2   155  ASN155      0.2622
     67  O         28.6960   11.0860   49.4400 O.2   155  ASN155     -0.2715
     68  CB        28.0750   11.4600   52.6240 C.3   155  ASN155      0.1195
     69  CG        29.1170   11.2650   53.7010 C.2   155  ASN155      0.2630
     70  OD1       30.3160   11.2780   53.4320 O.2   155  ASN155     -0.2716
     71  ND2       28.6600   11.0550   54.9280 N.am  155  ASN155     -0.0877
     72  N         26.7210   12.0770   49.9030 N.am  156  THR156     -0.1937
     73  CA        26.0630   11.5770   48.6970 C.3   156  THR156      0.2028
     74  C         26.7460   12.0440   47.4110 C.2   156  THR156      0.2642
     75  O         26.8920   11.2720   46.4590 O.2   156  THR156     -0.2714
     76  CB        24.5930   12.0190   48.6210 C.3   156  THR156      0.1808
     77  OG1       23.9480   11.7860   49.8790 O.3   156  THR156     -0.2208
     78  CG2       23.8720   11.2240   47.5380 C.3   156  THR156      0.0379
     79  N         27.1480   13.3100   47.3740 N.am  157  ALA157     -0.1977
     80  CA        27.8180   13.8350   46.1980 C.3   157  ALA157      0.1597
     81  C         29.1680   13.1400   46.0250 C.2   157  ALA157      0.2287
     82  O         29.4410   12.5380   44.9870 O.2   157  ALA157     -0.2864
     83  CB        28.0070   15.3160   46.3380 C.3   157  ALA157      0.0319
     84  N         30.4070   10.3510   47.2720 N.3   159  GLU159     -0.1245
     85  CA        30.2710    8.9290   46.9340 C.3   159  GLU159      0.1567
     86  C         29.8090    8.7300   45.4910 C.2   159  GLU159      0.2260
     87  O         30.3160    7.8470   44.7840 O.2   159  GLU159     -0.2867
     88  CB        29.2830    8.2300   47.8690 C.3   159  GLU159      0.0388
     89  CG        29.7080    8.1510   49.3150 C.3   159  GLU159      0.1160
     90  CD        28.9060    7.1230   50.0760 C.2   159  GLU159      0.3649
     91  OE1       27.7490    6.8620   49.6890 O.co2 159  GLU159     -0.2457
     92  OE2       29.4290    6.5770   51.0670 O.co2 159  GLU159     -0.2457
     93  N         30.5620   22.3400   43.7460 N.3   175  HIS175     -0.1226
     94  CA        30.1600   22.6210   45.1140 C.3   175  HIS175      0.1752
     95  C         30.2350   24.1070   45.4900 C.2   175  HIS175      0.2596
     96  O         31.1290   24.8220   45.0390 O.2   175  HIS175     -0.2718
     97  CB        31.0140   21.7560   46.0460 C.3   175  HIS175      0.0759
     98  CG        30.6890   21.9140   47.4950 C.ar  175  HIS175      0.0818
     99  ND1       29.4040   22.1000   47.9540 N.ar  175  HIS175     -0.2268
    100  CD2       31.4830   21.8970   48.5910 C.ar  175  HIS175      0.1154
    101  CE1       29.4200   22.1940   49.2720 C.ar  175  HIS175      0.1986
    102  NE2       30.6690   22.0740   49.6830 N.ar  175  HIS175     -0.2212
    103  N         29.2780   24.5500   46.3060 N.am  176  ARG176     -0.1966
    104  CA        29.1780   25.9370   46.7730 C.3   176  ARG176      0.1729
    105  C         30.3630   26.4670   47.5540 C.2   176  ARG176      0.2616
    106  O         30.4100   27.6570   47.8630 O.2   176  ARG176     -0.2715
    107  CB        27.9970   26.1130   47.7100 C.3   176  ARG176      0.0348
    108  CG        26.6640   25.8170   47.1430 C.3   176  ARG176      0.0492
    109  CD        25.6060   26.2420   48.1470 C.3   176  ARG176      0.2205
    110  NE        25.8620   25.6910   49.4720 N.pl3 176  ARG176     -0.0865
    111  CZ        24.9240   25.5470   50.4050 C.cat 176  ARG176      0.5346
    112  NH1       23.6700   25.9170   50.1480 N.pl3 176  ARG176      0.1354
    113  NH2       25.2300   25.0250   51.5900 N.pl3 176  ARG176      0.1354
    114  N         31.2970   25.6030   47.9150 N.am  177  ARG177     -0.1977
    115  CA        32.4100   26.0690   48.7110 C.3   177  ARG177      0.1597
    116  C         33.7260   25.4730   48.3150 C.2   177  ARG177      0.2287
    117  O         33.8590   24.8190   47.2850 O.2   177  ARG177     -0.2864
    118  CB        32.1700   25.7420   50.1790 C.3   177  ARG177      0.0334
    119  CG        30.9170   26.3430   50.7630 C.3   177  ARG177      0.0492
    120  CD        30.4220   25.4600   51.8830 C.3   177  ARG177      0.2205
    121  NE        31.5150   25.0620   52.7630 N.pl3 177  ARG177     -0.0865
    122  CZ        31.5530   23.9150   53.4290 C.cat 177  ARG177      0.5346
    123  NH1       30.5570   23.0470   53.3130 N.pl3 177  ARG177      0.1354
    124  NH2       32.5920   23.6370   54.2020 N.pl3 177  ARG177      0.1354
    125  N         31.6650   18.4040   53.2050 N.3   181  ARG181     -0.1245
    126  CA        31.1930   17.9090   54.4910 C.3   181  ARG181      0.1563
    127  C         31.1520   16.3880   54.5780 C.2   181  ARG181      0.2260
    128  O         30.7770   15.8370   55.6060 O.2   181  ARG181     -0.2867
    129  CB        29.8110   18.4780   54.8260 C.3   181  ARG181      0.0307
    130  CG        28.7180   18.0450   53.8850 C.3   181  ARG181      0.0489
    131  CD        27.3340   18.3370   54.4370 C.3   181  ARG181      0.2205
    132  NE        27.1570   19.7470   54.7580 N.pl3 181  ARG181     -0.0865
    133  CZ        27.4420   20.2900   55.9370 C.cat 181  ARG181      0.5346
    134  NH1       27.9210   19.5360   56.9210 N.pl3 181  ARG181      0.1354
    135  NH2       27.2440   21.5870   56.1330 N.pl3 181  ARG181      0.1354
    136  N         32.4700   12.4640   54.9560 N.3   183  GLU183     -0.1245
    137  CA        33.4330   11.8500   55.8760 C.3   183  GLU183      0.1567
    138  C         34.8420   12.0450   55.3230 C.2   183  GLU183      0.2260
    139  O         35.0450   12.0030   54.1090 O.2   183  GLU183     -0.2867
    140  CB        33.1720   10.3460   56.0020 C.3   183  GLU183      0.0388
    141  CG        32.2960    9.9080   57.1620 C.3   183  GLU183      0.1160
    142  CD        32.1370    8.3950   57.1970 C.2   183  GLU183      0.3649
    143  OE1       31.7570    7.8410   58.2510 O.co2 183  GLU183     -0.2457
    144  OE2       32.3880    7.7560   56.1560 O.co2 183  GLU183     -0.2457
    145  N         36.5030    9.5440   53.0200 N.3   186  LEU186     -0.1245
    146  CA        35.9780    9.6960   51.6610 C.3   186  LEU186      0.1561
    147  C         36.5880   10.9070   50.9420 C.2   186  LEU186      0.2260
    148  O         36.9980   10.8180   49.7790 O.2   186  LEU186     -0.2867
    149  CB        34.4520    9.8360   51.7130 C.3   186  LEU186      0.0270
    150  CG        33.5410    8.6550   51.3590 C.3   186  LEU186      0.0019
    151  CD1       33.9790    7.3480   52.0340 C.3   186  LEU186      0.0001
    152  CD2       32.1330    9.0470   51.7690 C.3   186  LEU186      0.0001
    153  N         27.9190   27.2700   41.4850 N.3   206  THR206     -0.1218
    154  CA        26.5710   26.8020   41.7510 C.3   206  THR206      0.1862
    155  C         25.8630   26.6240   40.4280 C.2   206  THR206      0.2287
    156  O         26.1020   27.3860   39.4940 O.2   206  THR206     -0.2866
    157  CB        25.7850   27.7980   42.5740 C.3   206  THR206      0.1770
    158  OG1       25.6720   29.0240   41.8460 O.3   206  THR206     -0.2211
    159  CG2       26.4750   28.0540   43.8910 C.3   206  THR206      0.0375
    160  N         23.0540   16.2130   44.2320 N.3   242  ALA242     -0.1231
    161  CA        23.2110   15.6230   45.5520 C.3   242  ALA242      0.1694
    162  C         23.3160   16.7450   46.5740 C.2   242  ALA242      0.2592
    163  O         24.3890   16.9700   47.1490 O.2   242  ALA242     -0.2718
    164  CB        24.4680   14.7510   45.5890 C.3   242  ALA242      0.0304
    165  N         22.2070   17.4520   46.7930 N.am  243  ILE243     -0.1966
    166  CA        22.2090   18.5570   47.7430 C.3   243  ILE243      0.1727
    167  C         21.3680   18.3030   48.9940 C.2   243  ILE243      0.2617
    168  O         20.6450   19.1880   49.4680 O.2   243  ILE243     -0.2715
    169  CB        21.7460   19.8840   47.0800 C.3   243  ILE243      0.0290
    170  CG1       20.2890   19.7760   46.6250 C.3   243  ILE243      0.0022
    171  CG2       22.6360   20.2050   45.8960 C.3   243  ILE243      0.0023
    172  CD1       19.6690   21.1160   46.2700 C.3   243  ILE243      0.0001
    173  N         21.4720   17.0900   49.5290 N.am  244  GLY244     -0.1940
    174  CA        20.7450   16.7550   50.7390 C.3   244  GLY244      0.2014
    175  C         19.3140   16.3510   50.4940 C.2   244  GLY244      0.2638
    176  O         18.9200   16.1160   49.3520 O.2   244  GLY244     -0.2714
    177  N         18.5370   16.2830   51.5710 N.am  245  HIS245     -0.1973
    178  CA        17.1330   15.8860   51.4920 C.3   245  HIS245      0.1656
    179  C         16.2590   16.7520   52.3880 C.2   245  HIS245      0.2291
    180  O         16.7440   17.6280   53.1060 O.2   245  HIS245     -0.2864
    181  CB        16.9710   14.4330   51.9430 C.3   245  HIS245      0.0771
    182  CG        17.9330   13.4870   51.2980 C.ar  245  HIS245      0.0820
    183  ND1       17.5610   12.6160   50.2980 N.ar  245  HIS245     -0.2267
    184  CD2       19.2580   13.2930   51.4950 C.ar  245  HIS245      0.1154
    185  CE1       18.6160   11.9260   49.9030 C.ar  245  HIS245      0.1986
    186  NE2       19.6580   12.3190   50.6140 N.ar  245  HIS245     -0.2212
    187  N         15.0480    9.5200   60.1320 N.3   286  ASP286     -0.1239
    188  CA        15.4470   10.8240   59.6280 C.3   286  ASP286      0.1674
    189  C         14.3280   11.8560   59.6320 C.2   286  ASP286      0.2266
    190  O         14.5820   13.0600   59.6240 O.2   286  ASP286     -0.2867
    191  CB        15.9980   10.6640   58.2160 C.3   286  ASP286      0.1410
    192  CG        17.4670   10.3220   58.2080 C.2   286  ASP286      0.3668
    193  OD1       17.9340    9.7280   59.1990 O.co2 286  ASP286     -0.2456
    194  OD2       18.1540   10.6400   57.2110 O.co2 286  ASP286     -0.2456
    195  N         20.0940   16.2260   62.5850 N.3   291  ILE291     -0.1231
    196  CA        21.5450   16.1840   62.7890 C.3   291  ILE291      0.1692
    197  C         22.3570   15.0040   62.2450 C.2   291  ILE291      0.2592
    198  O         23.0480   15.1270   61.2290 O.2   291  ILE291     -0.2718
    199  CB        21.9060   16.3070   64.2940 C.3   291  ILE291      0.0266
    200  CG1       21.2790   17.5620   64.8940 C.3   291  ILE291      0.0019
    201  CG2       23.4080   16.3530   64.4670 C.3   291  ILE291      0.0020
    202  CD1       19.8110   17.3850   65.2380 C.3   291  ILE291      0.0001
    203  N         22.2890   13.8710   62.9350 N.am  292  TYR292     -0.1962
    204  CA        23.0560   12.6890   62.5570 C.3   292  TYR292      0.1771
    205  C         22.6710   12.0040   61.2480 C.2   292  TYR292      0.2619
    206  O         23.5170   11.7940   60.3870 O.2   292  TYR292     -0.2715
    207  CB        23.0030   11.7000   63.7120 C.3   292  TYR292      0.0574
    208  CG        23.3060   12.3670   65.0290 C.ar  292  TYR292     -0.0198
    209  CD1       24.6200   12.7040   65.3810 C.ar  292  TYR292     -0.0009
    210  CD2       22.2780   12.7020   65.9090 C.ar  292  TYR292     -0.0009
    211  CE1       24.8960   13.3570   66.5820 C.ar  292  TYR292      0.0417
    212  CE2       22.5430   13.3540   67.1030 C.ar  292  TYR292      0.0417
    213  CZ        23.8490   13.6790   67.4330 C.ar  292  TYR292      0.1957
    214  OH        24.0940   14.3350   68.6120 O.3   292  TYR292     -0.2866
    215  N         21.4030   11.6400   61.1180 N.am  293  ARG293     -0.1963
    216  CA        20.8940   10.9900   59.9230 C.3   293  ARG293      0.1729
    217  C         21.7950    9.9370   59.3030 C.2   293  ARG293      0.2616
    218  O         22.3430   10.1530   58.2230 O.2   293  ARG293     -0.2715
    219  CB        20.5860   12.0310   58.8580 C.3   293  ARG293      0.0348
    220  CG        19.8070   13.2260   59.3660 C.3   293  ARG293      0.0492
    221  CD        20.5370   14.5020   59.0280 C.3   293  ARG293      0.2205
    222  NE        19.9970   15.1670   57.8540 N.pl3 293  ARG293     -0.0865
    223  CZ        20.5940   16.1910   57.2570 C.cat 293  ARG293      0.5346
    224  NH1       21.7490   16.6470   57.7340 N.pl3 293  ARG293      0.1354
    225  NH2       20.0400   16.7650   56.1920 N.pl3 293  ARG293      0.1354
    226  N         21.9550    8.8090   59.9920 N.am  294  GLN294     -0.1977
    227  CA        22.7380    7.6760   59.4920 C.3   294  GLN294      0.1601
    228  C         21.7480    6.5180   59.5390 C.2   294  GLN294      0.2287
    229  O         20.6490    6.6640   60.0810 O.2   294  GLN294     -0.2864
    230  CB        23.9220    7.3430   60.4050 C.3   294  GLN294      0.0394
    231  CG        24.9350    8.4450   60.6040 C.3   294  GLN294      0.0908
    232  CD        25.5310    8.9570   59.3090 C.2   294  GLN294      0.2608
    233  OE1       26.1370    8.2150   58.5340 O.2   294  GLN294     -0.2717
    234  NE2       25.3650   10.2450   59.0740 N.am  294  GLN294     -0.0878
@<TRIPOS>BOND
     1   156   155    2
     2   155   154    1
     3    50    48    1
     4   153   154    1
     5    42    41    1
     6    48    45    1
     7    48    49    1
     8    44    45    1
     9   154   157    1
    10   158   157    1
    11    51    49    1
    12    40    41    1
    13    40    37    1
    14    45    46    1
    15   157   159    1
    16    41    43    1
    17    38    37    1
    18    38    39    2
    19    37    36    1
    20    93    94    1
    21    46    47    2
    22    46    52   am
    23   160   161    1
    24    52    53    1
    25    87    86    2
    26    82    81    2
    27    96    95    2
    28    94    95    1
    29    94    97    1
    30    95   103   am
    31    86    85    1
    32    28    27    2
    33   161   164    1
    34   161   162    1
    35   171   169    1
    36    81    80    1
    37    97    98    1
    38    27    26    1
    39    80    83    1
    40    80    79    1
    41    53    54    1
    42    55    54    2
    43   172   170    1
    44   103   104    1
    45    75    74    2
    46   162   165   am
    47   162   163    2
    48   170   169    1
    49    13    12    2
    50   104   105    1
    51   104   107    1
    52   165   166    1
    53    54    56   am
    54    12    11    1
    55    85    84    1
    56    85    88    1
    57   169   166    1
    58    10    11    1
    59   108   107    1
    60   108   109    1
    61    11    14    1
    62   117   116    2
    63    79    74   am
    64    74    73    1
    65    26    25    1
    66    26    29    1
    67    98    99   ar
    68    98   100   ar
    69    78    76    1
    70   105   106    2
    71   105   114   am
    72   166   167    1
    73    88    89    1
    74   114   115    1
    75    99   101   ar
    76   109   110    1
    77    56    57    1
    78   116   115    1
    79    30    29    1
    80    30    31    1
    81   100   102   ar
    82    76    73    1
    83    76    77    1
    84    14    15    1
    85    14    16    1
    86    73    72    1
    87   115   118    1
    88    57    58    1
    89   167   168    2
    90   167   173   am
    91   101   102   ar
    92    89    90    1
    93   176   175    2
    94    67    66    2
    95     4     3    2
    96   110   111    2
    97   173   174    1
    98    91    90   ar
    99   148   147    2
   100    63    62    2
   101    31    32    1
   102    72    66   am
   103   185   183   ar
   104   185   186   ar
   105    58    60   am
   106    58    59    2
   107    90    92   ar
   108    60    61    1
   109   112   111    1
   110    66    65    1
   111   118   119    1
   112   183   182   ar
   113   111   113    1
   114    32    33    2
   115   175   174    1
   116   175   177   am
   117     3     2    1
   118   186   184   ar
   119   119   120    1
   120     2     1    1
   121     2     5    1
   122    62    61    1
   123    62    64   am
   124   147   146    1
   125   182   184   ar
   126   182   181    1
   127   150   149    1
   128   150   152    1
   129   150   151    1
   130    65    64    1
   131    65    68    1
   132   178   177    1
   133   178   181    1
   134   178   179    1
   135     5     6    1
   136   146   149    1
   137   146   145    1
   138    33    35    1
   139    33    34    1
   140   120   121    1
   141     6     7    1
   142   179   180    2
   143     8     7    2
   144    68    69    1
   145   121   122    2
   146     7     9   am
   147   125   126    1
   148   123   122    1
   149   122   124    1
   150    70    69    2
   151    69    71   am
   152   130   131    1
   153   130   129    1
   154   139   138    2
   155   131   132    1
   156   126   127    1
   157   126   129    1
   158   127   128    2
   159   132   133    2
   160   136   137    1
   161   138   137    1
   162   137   140    1
   163   133   135    1
   164   133   134    1
   165   140   141    1
   166   144   142   ar
   167   225   223    1
   168    23    22    2
   169    17    18    1
   170   141   142    1
   171   142   143   ar
   172   194   192   ar
   173   223   224    1
   174   223   222    2
   175   222   221    1
   176    22    24   am
   177    22    21    1
   178   192   191    1
   179   192   193   ar
   180   191   188    1
   181   218   217    2
   182    18    21    1
   183    18    19    1
   184   233   232    2
   185   219   220    1
   186   219   216    1
   187   221   220    1
   188   234   232   am
   189    19    20    2
   190   217   216    1
   191   217   226   am
   192   232   231    1
   193   227   228    1
   194   227   226    1
   195   227   230    1
   196   228   229    2
   197   190   189    2
   198   188   189    1
   199   188   187    1
   200   216   215    1
   201   206   205    2
   202   230   231    1
   203   215   205   am
   204   198   197    2
   205   205   204    1
   206   197   196    1
   207   197   203   am
   208   204   203    1
   209   204   207    1
   210   195   196    1
   211   196   199    1
   212   207   208    1
   213   199   201    1
   214   199   200    1
   215   200   202    1
   216   208   209   ar
   217   208   210   ar
   218   209   211   ar
   219   210   212   ar
   220   211   213   ar
   221   212   213   ar
   222   213   214    1
