@<TRIPOS>MOLECULE
tmp/1f6tA00.pdb
 117 110 0 0 0
SMALL
GASTEIGER

@<TRIPOS>ATOM
      1  N          7.0500   77.0500   36.6060 N.3    11  LYS11      -0.1245
      2  CA         6.2830   78.1580   36.0870 C.3    11  LYS11       0.1561
      3  C          5.4050   78.7980   37.1700 C.2    11  LYS11       0.2260
      4  O          5.3140   78.2940   38.2990 O.2    11  LYS11      -0.2867
      5  CB         5.4480   77.6560   34.9100 C.3    11  LYS11       0.0271
      6  CG         6.3110   77.1760   33.7250 C.3    11  LYS11       0.0035
      7  CD         5.4710   76.5810   32.5720 C.3    11  LYS11       0.0206
      8  CE         6.3480   75.9910   31.4220 C.3    11  LYS11       0.1093
      9  NZ         5.5570   75.3530   30.3000 N.3    11  LYS11      -0.1314
     10  N         11.5570   81.4020   24.9470 N.3    51  TYR51      -0.1241
     11  CA        10.6980   80.6890   24.0330 C.3    51  TYR51       0.1605
     12  C         10.8310   81.1400   22.5680 C.2    51  TYR51       0.2264
     13  O          9.9390   80.8960   21.7680 O.2    51  TYR51      -0.2867
     14  CB         9.2610   80.8540   24.5160 C.3    51  TYR51       0.0534
     15  CG         8.8870   79.9850   25.6990 C.ar   51  TYR51      -0.0201
     16  CD1        8.9200   78.5920   25.5960 C.ar   51  TYR51      -0.0009
     17  CD2        8.4240   80.5500   26.8920 C.ar   51  TYR51      -0.0009
     18  CE1        8.4930   77.7680   26.6470 C.ar   51  TYR51       0.0417
     19  CE2        7.9890   79.7340   27.9550 C.ar   51  TYR51       0.0417
     20  CZ         8.0240   78.3430   27.8180 C.ar   51  TYR51       0.1957
     21  OH         7.5480   77.5220   28.8230 O.3    51  TYR51      -0.2866
     22  N         12.1010   79.9630   20.0590 N.3    53  GLU53      -0.1231
     23  CA        11.8620   78.9580   19.0440 C.3    53  GLU53       0.1699
     24  C         10.3610   78.8340   18.7070 C.2    53  GLU53       0.2592
     25  O          9.9910   78.2800   17.6590 O.2    53  GLU53      -0.2718
     26  CB        12.4170   77.5980   19.4990 C.3    53  GLU53       0.0402
     27  CG        11.3730   76.6800   20.1400 C.3    53  GLU53       0.1161
     28  CD        11.9040   75.2940   20.4470 C.2    53  GLU53       0.3649
     29  OE1       12.1940   74.5290   19.4960 O.co2  53  GLU53      -0.2457
     30  OE2       12.0250   74.9740   21.6460 O.co2  53  GLU53      -0.2457
     31  N          9.4990   79.3450   19.5920 N.am   54  HIS54      -0.1976
     32  CA         8.0540   79.2700   19.3760 C.3    54  HIS54       0.1656
     33  C          7.4140   80.6210   19.0240 C.2    54  HIS54       0.2291
     34  O          6.1950   80.7390   19.0170 O.2    54  HIS54      -0.2864
     35  CB         7.3650   78.6890   20.6290 C.3    54  HIS54       0.0771
     36  CG         7.6570   77.2370   20.8710 C.ar   54  HIS54       0.0820
     37  ND1        7.5590   76.2850   19.8780 N.ar   54  HIS54      -0.2267
     38  CD2        8.0230   76.5680   21.9960 C.ar   54  HIS54       0.1154
     39  CE1        7.8530   75.0950   20.3770 C.ar   54  HIS54       0.1986
     40  NE2        8.1390   75.2390   21.6590 N.ar   54  HIS54      -0.2212
     41  N          0.1380   80.2260   20.1410 N.3    59  PHE59      -0.1241
     42  CA         0.1540   80.2730   21.5980 C.3    59  PHE59       0.1605
     43  C          1.2740   81.1120   22.2350 C.2    59  PHE59       0.2264
     44  O          1.2370   81.3550   23.4290 O.2    59  PHE59      -0.2867
     45  CB         0.2350   78.8420   22.1410 C.3    59  PHE59       0.0534
     46  CG         1.5570   78.1540   21.8500 C.ar   59  PHE59      -0.0203
     47  CD1        2.7300   78.5910   22.4480 C.ar   59  PHE59      -0.0042
     48  CD2        1.6180   77.0560   20.9900 C.ar   59  PHE59      -0.0042
     49  CE1        3.9470   77.9460   22.2010 C.ar   59  PHE59      -0.0003
     50  CE2        2.8410   76.4090   20.7440 C.ar   59  PHE59      -0.0003
     51  CZ         3.9950   76.8630   21.3550 C.ar   59  PHE59      -0.0000
     52  N          1.4890   82.5300   26.0910 N.3    63  LEU63      -0.1245
     53  CA         2.5690   81.8820   26.8360 C.3    63  LEU63       0.1561
     54  C          3.4610   82.9610   27.4530 C.2    63  LEU63       0.2260
     55  O          3.7010   82.9770   28.6690 O.2    63  LEU63      -0.2867
     56  CB         3.4050   80.9890   25.8980 C.3    63  LEU63       0.0270
     57  CG         4.7460   80.4320   26.4030 C.3    63  LEU63       0.0019
     58  CD1        4.5330   79.7000   27.7470 C.3    63  LEU63       0.0001
     59  CD2        5.3310   79.4780   25.3750 C.3    63  LEU63       0.0001
     60  N         13.4320   65.5050   31.3990 N.3    87  ARG87      -0.1245
     61  CA        12.3470   65.5500   30.4470 C.3    87  ARG87       0.1563
     62  C         11.4050   64.3910   30.7140 C.2    87  ARG87       0.2260
     63  O         10.1940   64.5400   30.7040 O.2    87  ARG87      -0.2867
     64  CB        12.9160   65.4400   29.0380 C.3    87  ARG87       0.0307
     65  CG        13.2560   66.7750   28.4480 C.3    87  ARG87       0.0489
     66  CD        12.1620   67.1770   27.4860 C.3    87  ARG87       0.2205
     67  NE        11.7450   68.5580   27.6250 N.pl3  87  ARG87      -0.0865
     68  CZ        10.9780   69.1910   26.7380 C.cat  87  ARG87       0.5346
     69  NH1       10.5460   68.5660   25.6400 N.pl3  87  ARG87       0.1354
     70  NH2       10.6300   70.4450   26.9580 N.pl3  87  ARG87       0.1354
     71  N          4.0660   67.3480   26.8250 N.3    93  THR93      -0.1218
     72  CA         3.4420   68.6480   26.6980 C.3    93  THR93       0.1862
     73  C          2.1120   68.7460   27.4210 C.2    93  THR93       0.2287
     74  O          1.9160   69.5940   28.2890 O.2    93  THR93      -0.2866
     75  CB         3.2540   68.9820   25.2170 C.3    93  THR93       0.1770
     76  OG1        4.5510   69.1000   24.6320 O.3    93  THR93      -0.2211
     77  CG2        2.4650   70.3090   25.0400 C.3    93  THR93       0.0375
     78  N          4.1010   66.5140   35.3680 N.3   104  ARG104     -0.1245
     79  CA         2.8570   66.9820   34.7780 C.3   104  ARG104      0.1563
     80  C          1.7610   65.9350   34.9130 C.2   104  ARG104      0.2260
     81  O          0.5940   66.2850   35.0970 O.2   104  ARG104     -0.2867
     82  CB         3.0500   67.3660   33.3000 C.3   104  ARG104      0.0307
     83  CG         4.0130   68.5010   33.1250 C.3   104  ARG104      0.0489
     84  CD         4.3190   68.7500   31.6650 C.3   104  ARG104      0.2205
     85  NE         5.0800   69.9810   31.4610 N.pl3 104  ARG104     -0.0865
     86  CZ         5.7540   70.2740   30.3480 C.cat 104  ARG104      0.5346
     87  NH1        5.7770   69.4160   29.3420 N.pl3 104  ARG104      0.1354
     88  NH2        6.3670   71.4470   30.2270 N.pl3 104  ARG104      0.1354
     89  N         -2.5650   72.2490   29.1850 N.3   111  VAL111     -0.1231
     90  CA        -1.2880   72.4890   28.5010 C.3   111  VAL111      0.1692
     91  C         -0.6920   73.8270   28.8650 C.2   111  VAL111      0.2592
     92  O          0.5120   73.9490   29.0850 O.2   111  VAL111     -0.2718
     93  CB        -1.4560   72.4550   26.9700 C.3   111  VAL111      0.0266
     94  CG1       -0.1920   72.9780   26.2960 C.3   111  VAL111      0.0020
     95  CG2       -1.7300   71.0350   26.5180 C.3   111  VAL111      0.0020
     96  N         -1.5470   74.8400   28.9170 N.am  112  GLY112     -0.1957
     97  CA        -1.1000   76.1790   29.2590 C.3   112  GLY112      0.1869
     98  C         -0.7830   76.3080   30.7280 C.2   112  GLY112      0.2309
     99  O         -0.1830   77.2850   31.1510 O.2   112  GLY112     -0.2863
    100  N          0.9320   73.8080   32.6230 N.3   114  ASN114     -0.1240
    101  CA         1.6840   72.5530   32.7480 C.3   114  ASN114      0.1653
    102  C          2.9090   72.5710   33.6890 C.2   114  ASN114      0.2266
    103  O          3.9060   71.8600   33.4920 O.2   114  ASN114     -0.2867
    104  CB         2.0530   71.9770   31.3570 C.3   114  ASN114      0.1155
    105  CG         3.0380   72.8200   30.5940 C.2   114  ASN114      0.2627
    106  OD1        3.5590   73.8040   31.1060 O.2   114  ASN114     -0.2716
    107  ND2        3.3090   72.4220   29.3320 N.am  114  ASN114     -0.0877
    108  N          9.0300   73.8140   33.1840 N.3   117  HIS117     -0.1241
    109  CA         9.7140   73.7900   31.8930 C.3   117  HIS117      0.1621
    110  C         11.0190   73.0120   32.0460 C.2   117  HIS117      0.2264
    111  O         11.7000   73.1570   33.0450 O.2   117  HIS117     -0.2867
    112  CB        10.1110   75.1840   31.3980 C.3   117  HIS117      0.0745
    113  CG        11.0750   75.1350   30.2450 C.ar  117  HIS117      0.0817
    114  ND1       10.6650   75.1660   28.9300 N.ar  117  HIS117     -0.2268
    115  CD2       12.4140   74.9310   30.2140 C.ar  117  HIS117      0.1154
    116  CE1       11.7080   74.9780   28.1390 C.ar  117  HIS117      0.1986
    117  NE2       12.7820   74.8300   28.8950 N.ar  117  HIS117     -0.2212
@<TRIPOS>BOND
     1    25    24    2
     2    24    23    1
     3    24    31   am
     4    34    33    2
     5    33    32    1
     6    23    26    1
     7    23    22    1
     8    32    31    1
     9    32    35    1
    10    29    28   ar
    11    26    27    1
    12    37    39   ar
    13    37    36   ar
    14    27    28    1
    15    41    42    1
    16    39    40   ar
    17    28    30   ar
    18    35    36    1
    19    50    48   ar
    20    50    51   ar
    21    36    38   ar
    22    48    46   ar
    23    51    49   ar
    24    42    45    1
    25    42    43    1
    26    40    38   ar
    27    13    12    2
    28    46    45    1
    29    46    47   ar
    30    49    47   ar
    31    43    44    2
    32    12    11    1
    33    11    14    1
    34    11    10    1
    35    14    15    1
    36    76    75    1
    37    77    75    1
    38    75    72    1
    39    59    57    1
    40    16    15   ar
    41    16    18   ar
    42    69    68    1
    43    15    17   ar
    44    56    57    1
    45    56    53    1
    46    52    53    1
    47    94    93    1
    48    57    58    1
    49    95    93    1
    50    18    20   ar
    51    72    71    1
    52    72    73    1
    53    68    70    1
    54    68    67    2
    55    53    54    1
    56    17    19   ar
    57    93    90    1
    58    73    74    2
    59    54    55    2
    60    66    67    1
    61    66    65    1
    62    20    19   ar
    63    20    21    1
    64   116   117   ar
    65   116   114   ar
    66    65    64    1
    67    90    91    1
    68    90    89    1
    69    91    96   am
    70    91    92    2
    71   117   115   ar
    72    96    97    1
    73   114   113   ar
    74    64    61    1
    75    97    98    1
    76   107   105   am
    77    87    86    1
    78   115   113   ar
    79    88    86    1
    80   113   112    1
    81     9     8    1
    82    86    85    2
    83    61    62    1
    84    61    60    1
    85   105   106    2
    86   105   104    1
    87    63    62    2
    88    98    99    2
    89   104   101    1
    90   112   109    1
    91     8     7    1
    92    85    84    1
    93    84    83    1
    94   109   110    1
    95   109   108    1
    96   110   111    2
    97     7     6    1
    98   100   101    1
    99   101   102    1
   100    83    82    1
   101    82    79    1
   102   103   102    2
   103     6     5    1
   104    79    80    1
   105    79    78    1
   106     5     2    1
   107    80    81    2
   108     2     1    1
   109     2     3    1
   110     3     4    2
