@<TRIPOS>MOLECULE
tmp/1f76A00.pdb
 197 182 0 0 0
SMALL
GASTEIGER

@<TRIPOS>ATOM
      1  N         82.3770    0.4050   22.2800 N.3    59  ALA59      -0.1231
      2  CA        83.1080    1.2930   21.3880 C.3    59  ALA59       0.1694
      3  C         84.2390    0.5230   20.7050 C.2    59  ALA59       0.2592
      4  O         84.6660   -0.5270   21.1880 O.2    59  ALA59      -0.2718
      5  CB        83.6740    2.4650   22.1680 C.3    59  ALA59       0.0304
      6  N         84.7210    1.0550   19.5860 N.am   60  ALA60      -0.1966
      7  CA        85.8040    0.4340   18.8320 C.3    60  ALA60       0.1728
      8  C         87.1260    0.5160   19.5850 C.2    60  ALA60       0.2616
      9  O         87.3190    1.3920   20.4230 O.2    60  ALA60      -0.2715
     10  CB        85.9430    1.1140   17.4640 C.3    60  ALA60       0.0334
     11  N         88.0370   -0.4030   19.2810 N.am   61  GLY61      -0.1955
     12  CA        89.3330   -0.3890   19.9300 C.3    61  GLY61       0.1869
     13  C         89.6170   -1.5500   20.8610 C.2    61  GLY61       0.2309
     14  O         90.7780   -1.8740   21.1190 O.2    61  GLY61      -0.2863
     15  N         89.6860   -5.1260   18.1590 N.3    64  LYS64      -0.1245
     16  CA        90.1510   -4.5830   16.8910 C.3    64  LYS64       0.1561
     17  C         90.0210   -5.5140   15.6880 C.2    64  LYS64       0.2260
     18  O         89.7190   -5.0560   14.5890 O.2    64  LYS64      -0.2867
     19  CB        91.5990   -4.0900   17.0450 C.3    64  LYS64       0.0271
     20  CG        91.6970   -2.8060   17.8780 C.3    64  LYS64       0.0035
     21  CD        93.0740   -2.5860   18.4990 C.3    64  LYS64       0.0206
     22  CE        93.7900   -1.3710   17.9060 C.3    64  LYS64       0.1093
     23  NZ        93.0520   -0.0690   18.0460 N.3    64  LYS64      -0.1314
     24  N         89.4740   -0.3340   15.0870 N.3    83  THR83      -0.1218
     25  CA        89.7070    0.0400   13.6980 C.3    83  THR83       0.1862
     26  C         90.5470   -0.9560   12.9030 C.2    83  THR83       0.2287
     27  O         91.5870   -1.4290   13.3650 O.2    83  THR83      -0.2866
     28  CB        90.4210    1.4100   13.6210 C.3    83  THR83       0.1770
     29  OG1       89.5370    2.4370   14.0760 O.3    83  THR83      -0.2211
     30  CG2       90.8510    1.7200   12.1960 C.3    83  THR83       0.0375
     31  N        100.2800    1.9100   25.9610 N.3    97  LEU97      -0.1245
     32  CA        99.0370    2.0330   26.7280 C.3    97  LEU97       0.1561
     33  C         99.3590    2.3030   28.2000 C.2    97  LEU97       0.2260
     34  O        100.2170    1.6430   28.7800 O.2    97  LEU97      -0.2867
     35  CB        98.2040    0.7510   26.5860 C.3    97  LEU97       0.0270
     36  CG        96.8600    0.6870   27.3180 C.3    97  LEU97       0.0019
     37  CD1       95.9610    1.8270   26.8820 C.3    97  LEU97       0.0001
     38  CD2       96.1950   -0.6590   27.0370 C.3    97  LEU97       0.0001
     39  N         92.5980    6.5160   30.7680 N.3   106  LEU106     -0.1245
     40  CA        93.6570    5.8230   30.0490 C.3   106  LEU106      0.1561
     41  C         94.2250    6.7380   28.9840 C.2   106  LEU106      0.2260
     42  O         93.5550    7.6570   28.4960 O.2   106  LEU106     -0.2867
     43  CB        93.1180    4.5710   29.3500 C.3   106  LEU106      0.0270
     44  CG        92.3720    3.4930   30.1380 C.3   106  LEU106      0.0019
     45  CD1       91.7390    2.5210   29.1640 C.3   106  LEU106      0.0001
     46  CD2       93.3250    2.7650   31.0830 C.3   106  LEU106      0.0001
     47  N         96.4880    6.2010   25.3880 N.3   108  ASN108     -0.1240
     48  CA        97.0040    5.2150   24.4510 C.3   108  ASN108      0.1653
     49  C         97.4860    5.8640   23.1610 C.2   108  ASN108      0.2266
     50  O         97.0470    6.9560   22.7850 O.2   108  ASN108     -0.2867
     51  CB        95.9330    4.1770   24.0960 C.3   108  ASN108      0.1155
     52  CG        95.0690    4.6100   22.9180 C.2   108  ASN108      0.2627
     53  OD1       95.5550    4.3540   21.7070 O.2   108  ASN108     -0.2716
     54  ND2       93.9910    5.1800   23.0920 N.am  108  ASN108     -0.0877
     55  N         96.5980    1.9630   15.4100 N.3   111  PHE111     -0.1241
     56  CA        95.8780    1.0200   14.5570 C.3   111  PHE111      0.1605
     57  C         96.5470   -0.3480   14.4190 C.2   111  PHE111      0.2264
     58  O         96.7370   -0.8420   13.3030 O.2   111  PHE111     -0.2867
     59  CB        95.6630    1.5990   13.1520 C.3   111  PHE111      0.0534
     60  CG        94.6730    2.7320   13.0930 C.ar  111  PHE111     -0.0203
     61  CD1       93.7390    2.9240   14.1100 C.ar  111  PHE111     -0.0042
     62  CD2       94.6470    3.5860   11.9890 C.ar  111  PHE111     -0.0042
     63  CE1       92.7920    3.9500   14.0260 C.ar  111  PHE111     -0.0003
     64  CE2       93.7060    4.6110   11.8930 C.ar  111  PHE111     -0.0003
     65  CZ        92.7740    4.7950   12.9160 C.ar  111  PHE111     -0.0000
     66  N         84.4500   -0.5310   12.0850 N.3   135  ASN135     -0.1240
     67  CA        85.2070    0.7120   12.0960 C.3   135  ASN135      0.1653
     68  C         86.4780    0.5530   11.2630 C.2   135  ASN135      0.2266
     69  O         87.2830   -0.3540   11.5020 O.2   135  ASN135     -0.2867
     70  CB        85.5290    1.0550   13.5540 C.3   135  ASN135      0.1155
     71  CG        86.2150    2.3820   13.7100 C.2   135  ASN135      0.2627
     72  OD1       87.2930    2.6090   13.1590 O.2   135  ASN135     -0.2716
     73  ND2       85.6030    3.2690   14.4830 N.am  135  ASN135     -0.0877
     74  N         86.7560    6.1260   10.6340 N.3   167  ASN167     -0.1240
     75  CA        87.6320    6.7260   11.6260 C.3   167  ASN167      0.1653
     76  C         88.6230    7.7390   11.0650 C.2   167  ASN167      0.2266
     77  O         89.6320    7.3780   10.4590 O.2   167  ASN167     -0.2867
     78  CB        88.3980    5.6440   12.3970 C.3   167  ASN167      0.1155
     79  CG        89.2510    6.2210   13.5310 C.2   167  ASN167      0.2627
     80  OD1       89.3360    7.4390   13.7110 O.2   167  ASN167     -0.2716
     81  ND2       89.8900    5.3440   14.2920 N.am  167  ASN167     -0.0877
     82  N         91.4210    9.4560   15.0370 N.3   170  SER170     -0.1217
     83  CA        92.4880    8.9100   15.8670 C.3   170  SER170      0.1889
     84  C         93.6540    9.8780   15.9250 C.2   170  SER170      0.2288
     85  O         94.0410   10.4560   14.9120 O.2   170  SER170     -0.2866
     86  CB        93.0020    7.5910   15.3040 C.3   170  SER170      0.2089
     87  OG        94.1990    7.2130   15.9720 O.3   170  SER170     -0.2183
     88  N         83.2880    9.1420   12.7240 N.3   211  LYS211     -0.1245
     89  CA        83.7570    9.3570   14.0880 C.3   211  LYS211      0.1561
     90  C         84.7080   10.5450   14.1950 C.2   211  LYS211      0.2260
     91  O         85.8340   10.5060   13.6930 O.2   211  LYS211     -0.2867
     92  CB        84.4390    8.0890   14.6130 C.3   211  LYS211      0.0271
     93  CG        84.7360    8.1250   16.1100 C.3   211  LYS211      0.0035
     94  CD        85.1120    6.7420   16.6290 C.3   211  LYS211      0.0206
     95  CE        85.3890    6.7520   18.1320 C.3   211  LYS211      0.1093
     96  NZ        85.7430    5.3930   18.6140 N.3   211  LYS211     -0.1314
     97  N         82.4610   10.9170   21.0670 N.3   239  THR239     -0.1203
     98  CA        83.6860   11.4030   20.4650 C.3   239  THR239      0.1994
     99  C         84.8660   10.4190   20.6220 C.2   239  THR239      0.2618
    100  O         84.7460    9.4060   21.3090 O.2   239  THR239     -0.2717
    101  CB        83.9950   12.7410   21.1710 C.3   239  THR239      0.1784
    102  OG1       84.1160   13.7930   20.2120 O.3   239  THR239     -0.2211
    103  CG2       85.2290   12.6210   22.0310 C.3   239  THR239      0.0376
    104  N         86.0000   10.7230   19.9870 N.am  240  ASN240     -0.1960
    105  CA        87.2060    9.8870   20.0920 C.3   240  ASN240      0.1819
    106  C         88.0120   10.3930   21.2990 C.2   240  ASN240      0.2621
    107  O         87.5300   11.2190   22.0660 O.2   240  ASN240     -0.2715
    108  CB        88.0620   10.0070   18.8220 C.3   240  ASN240      0.1195
    109  CG        88.9130    8.7590   18.5540 C.2   240  ASN240      0.2630
    110  OD1       89.6610    8.2950   19.4190 O.2   240  ASN240     -0.2716
    111  ND2       88.8030    8.2170   17.3370 N.am  240  ASN240     -0.0877
    112  N         89.2430    9.9220   21.4640 N.am  241  THR241     -0.1951
    113  CA        90.0620   10.3480   22.5960 C.3   241  THR241      0.1897
    114  C         90.6330   11.7570   22.4340 C.2   241  THR241      0.2313
    115  O         90.7690   12.2550   21.3150 O.2   241  THR241     -0.2863
    116  CB        91.1980    9.3700   22.8260 C.3   241  THR241      0.1794
    117  OG1       92.0780    9.3830   21.6950 O.3   241  THR241     -0.2208
    118  CG2       90.6330    7.9750   23.0240 C.3   241  THR241      0.0378
    119  N         91.2910    8.9210   27.4890 N.3   260  SER260     -0.1202
    120  CA        89.9070    8.4570   27.5350 C.3   260  SER260      0.2020
    121  C         89.4650    8.2610   28.9790 C.2   260  SER260      0.2619
    122  O         90.2360    8.4950   29.9100 O.2   260  SER260     -0.2717
    123  CB        89.7740    7.1320   26.7900 C.3   260  SER260      0.2103
    124  OG        90.6460    6.1610   27.3420 O.3   260  SER260     -0.2182
    125  N         88.2270    7.8180   29.1640 N.am  261  GLY261     -0.1956
    126  CA        87.7320    7.6080   30.5070 C.3   261  GLY261      0.1869
    127  C         87.1350    8.8500   31.1440 C.2   261  GLY261      0.2309
    128  O         86.7720    9.8040   30.4500 O.2   261  GLY261     -0.2863
    129  N         87.4110   12.6000   30.1480 N.3   264  LEU264     -0.1245
    130  CA        86.8610   12.9690   28.8390 C.3   264  LEU264      0.1561
    131  C         85.3430   13.1440   28.8980 C.2   264  LEU264      0.2260
    132  O         84.7350   13.7110   27.9910 O.2   264  LEU264     -0.2867
    133  CB        87.1840   11.8620   27.8210 C.3   264  LEU264      0.0270
    134  CG        87.3160   12.0600   26.2990 C.3   264  LEU264      0.0019
    135  CD1       86.9670   10.7390   25.6130 C.3   264  LEU264      0.0001
    136  CD2       86.4150   13.1670   25.7840 C.3   264  LEU264      0.0001
    137  N         79.8370    8.8700   22.9250 N.3   288  VAL288     -0.1231
    138  CA        80.8450    8.0670   23.6020 C.3   288  VAL288      0.1692
    139  C         81.8940    8.9800   24.2270 C.2   288  VAL288      0.2593
    140  O         82.2040   10.0390   23.6880 O.2   288  VAL288     -0.2718
    141  CB        81.5370    7.0810   22.6130 C.3   288  VAL288      0.0266
    142  CG1       82.1270    7.8470   21.4540 C.3   288  VAL288      0.0020
    143  CG2       82.6260    6.2880   23.3230 C.3   288  VAL288      0.0020
    144  N         82.4310    8.5610   25.3680 N.am  289  GLY289     -0.1942
    145  CA        83.4420    9.3500   26.0370 C.3   289  GLY289      0.2014
    146  C         83.2240    9.4320   27.5320 C.2   289  GLY289      0.2639
    147  O         82.3530   10.1690   28.0050 O.2   289  GLY289     -0.2714
    148  N         84.0050    8.6570   28.2780 N.am  290  GLY290     -0.1939
    149  CA        83.9050    8.6690   29.7280 C.3   290  GLY290      0.2014
    150  C         82.6230    8.1710   30.3830 C.2   290  GLY290      0.2638
    151  O         82.4160    8.4140   31.5680 O.2   290  GLY290     -0.2714
    152  N         81.7490    7.4890   29.6530 N.am  291  ILE291     -0.1977
    153  CA        80.5290    6.9820   30.2820 C.3   291  ILE291      0.1596
    154  C         80.9070    5.8770   31.2750 C.2   291  ILE291      0.2287
    155  O         81.4300    4.8390   30.8740 O.2   291  ILE291     -0.2864
    156  CB        79.5600    6.3890   29.2420 C.3   291  ILE291      0.0276
    157  CG1       79.0620    7.4870   28.3090 C.3   291  ILE291      0.0022
    158  CG2       78.3920    5.7090   29.9420 C.3   291  ILE291      0.0022
    159  CD1       78.0540    7.0040   27.2920 C.3   291  ILE291      0.0001
    160  N         80.7430    2.4290   25.2580 N.3   310  ILE310     -0.1231
    161  CA        81.6860    2.5040   26.3640 C.3   310  ILE310      0.1692
    162  C         82.9550    1.7230   26.0420 C.2   310  ILE310      0.2592
    163  O         82.9480    0.8120   25.2130 O.2   310  ILE310     -0.2718
    164  CB        81.0880    1.9250   27.6700 C.3   310  ILE310      0.0266
    165  CG1       80.7400    0.4470   27.4700 C.3   310  ILE310      0.0019
    166  CG2       79.8550    2.7220   28.0860 C.3   310  ILE310      0.0020
    167  CD1       80.2040   -0.2260   28.7120 C.3   310  ILE310      0.0001
    168  N         84.0480    2.1070   26.6890 N.am  311  TYR311     -0.1962
    169  CA        85.3100    1.4110   26.5290 C.3   311  TYR311      0.1771
    170  C         86.0270    1.4600   27.8780 C.2   311  TYR311      0.2620
    171  O         86.0230    0.4850   28.6310 O.2   311  TYR311     -0.2715
    172  CB        86.1890    2.0610   25.4520 C.3   311  TYR311      0.0574
    173  CG        87.4330    1.2480   25.1130 C.ar  311  TYR311     -0.0198
    174  CD1       88.1920    0.6460   26.1180 C.ar  311  TYR311     -0.0009
    175  CD2       87.8580    1.0870   23.7920 C.ar  311  TYR311     -0.0009
    176  CE1       89.3340   -0.0900   25.8270 C.ar  311  TYR311      0.0417
    177  CE2       89.0130    0.3450   23.4920 C.ar  311  TYR311      0.0417
    178  CZ        89.7390   -0.2360   24.5210 C.ar  311  TYR311      0.1957
    179  OH        90.8770   -0.9570   24.2650 O.3   311  TYR311     -0.2866
    180  N         86.6430    2.5990   28.1720 N.am  312  SER312     -0.1936
    181  CA        87.3790    2.7760   29.4140 C.3   312  SER312      0.2055
    182  C         86.5870    2.3480   30.6530 C.2   312  SER312      0.2643
    183  O         87.0850    1.5890   31.4860 O.2   312  SER312     -0.2714
    184  CB        87.8090    4.2340   29.5460 C.3   312  SER312      0.2130
    185  OG        88.6700    4.5930   28.4760 O.3   312  SER312     -0.2179
    186  N         85.3530    2.8310   30.7580 N.am  313  GLY313     -0.1954
    187  CA        84.5120    2.5010   31.8900 C.3   313  GLY313      0.1869
    188  C         84.2740    1.0140   32.0220 C.2   313  GLY313      0.2309
    189  O         84.0560    0.5040   33.1230 O.2   313  GLY313     -0.2863
    190  N         86.4870   -1.1780   31.3300 N.3   315  ILE315     -0.1245
    191  CA        87.7120   -1.7050   31.9170 C.3   315  ILE315      0.1561
    192  C         87.7980   -1.4250   33.4220 C.2   315  ILE315      0.2260
    193  O         88.3250   -2.2410   34.1730 O.2   315  ILE315     -0.2867
    194  CB        88.9570   -1.1070   31.2280 C.3   315  ILE315      0.0252
    195  CG1       89.1090   -1.7110   29.8310 C.3   315  ILE315      0.0019
    196  CG2       90.2030   -1.3530   32.0740 C.3   315  ILE315      0.0019
    197  CD1       90.2870   -1.1550   29.0590 C.3   315  ILE315      0.0001
@<TRIPOS>BOND
     1    77    76    2
     2    74    75    1
     3    76    75    1
     4    68    69    2
     5    68    67    1
     6    75    78    1
     7    64    62   ar
     8    64    65   ar
     9    62    60   ar
    10    66    67    1
    11    67    70    1
    12    30    28    1
    13    78    79    1
    14    88    89    1
    15    26    27    2
    16    26    25    1
    17    65    63   ar
    18    60    59    1
    19    60    61   ar
    20    59    56    1
    21    72    71    2
    22    58    57    2
    23    79    80    2
    24    79    81   am
    25    70    71    1
    26    28    25    1
    27    28    29    1
    28    91    90    2
    29    25    24    1
    30    71    73   am
    31    63    61   ar
    32    89    90    1
    33    89    92    1
    34    57    56    1
    35    56    55    1
    36    18    17    2
    37    92    93    1
    38    85    84    2
    39    82    83    1
    40    86    83    1
    41    86    87    1
    42    17    16    1
    43    83    84    1
    44    93    94    1
    45    94    95    1
    46    16    19    1
    47    16    15    1
    48    19    20    1
    49   111   109   am
    50    10     7    1
    51    20    21    1
    52    22    23    1
    53    22    21    1
    54    95    96    1
    55   109   108    1
    56   109   110    2
    57   108   105    1
    58     7     8    1
    59     7     6    1
    60    11     8   am
    61    11    12    1
    62     8     9    2
    63     6     3   am
    64    12    13    1
    65   104   105    1
    66   104    99   am
    67   105   106    1
    68   102   101    1
    69    98    99    1
    70    98    97    1
    71    98   101    1
    72    99   100    2
    73     3     4    2
    74     3     2    1
    75    13    14    2
    76   101   103    1
    77   106   112   am
    78   106   107    2
    79   115   114    2
    80     2     5    1
    81     2     1    1
    82   142   141    1
    83   112   113    1
    84   117   116    1
    85    53    52    2
    86   114   113    1
    87   113   116    1
    88   141   143    1
    89   141   138    1
    90    50    49    2
    91   116   118    1
    92    52    54   am
    93    52    51    1
    94   137   138    1
    95    49    48    1
    96   177   175   ar
    97   177   178   ar
    98   138   139    1
    99   140   139    2
   100   175   173   ar
   101    51    48    1
   102   139   144   am
   103   179   178    1
   104    48    47    1
   105   178   176   ar
   106   173   172    1
   107   173   174   ar
   108   163   162    2
   109   160   161    1
   110   144   145    1
   111   172   169    1
   112   135   134    1
   113   136   134    1
   114   176   174   ar
   115    31    32    1
   116   145   146    1
   117   162   161    1
   118   162   168   am
   119   134   133    1
   120   161   164    1
   121   169   168    1
   122   169   170    1
   123    35    32    1
   124    35    36    1
   125    32    33    1
   126   123   124    1
   127   123   120    1
   128    37    36    1
   129    38    36    1
   130   159   157    1
   131   165   164    1
   132   165   167    1
   133   119   120    1
   134   146   147    2
   135   146   148   am
   136   120   121    1
   137   164   166    1
   138   133   130    1
   139   170   180   am
   140   170   171    2
   141   132   131    2
   142   180   181    1
   143    33    34    2
   144   148   149    1
   145   157   156    1
   146   185   184    1
   147    42    41    2
   148   130   131    1
   149   130   129    1
   150   121   125   am
   151   121   122    2
   152    41    40    1
   153   197   195    1
   154    45    44    1
   155   125   126    1
   156   156   158    1
   157   156   153    1
   158    43    40    1
   159    43    44    1
   160   181   184    1
   161   181   182    1
   162   152   153    1
   163   152   150   am
   164   149   150    1
   165   195   194    1
   166    40    39    1
   167    44    46    1
   168   153   154    1
   169   150   151    2
   170   128   127    2
   171   126   127    1
   172   182   186   am
   173   182   183    2
   174   186   187    1
   175   155   154    2
   176   194   191    1
   177   194   196    1
   178   190   191    1
   179   187   188    1
   180   191   192    1
   181   188   189    2
   182   192   193    2
