@<TRIPOS>MOLECULE
tmp/1f76A01.pdb
 115 108 0 0 0
SMALL
GASTEIGER

@<TRIPOS>ATOM
      1  N         89.6860   -5.1260   18.1590 N.3    64  LYS64      -0.1245
      2  CA        90.1510   -4.5830   16.8910 C.3    64  LYS64       0.1561
      3  C         90.0210   -5.5140   15.6880 C.2    64  LYS64       0.2260
      4  O         89.7190   -5.0560   14.5890 O.2    64  LYS64      -0.2867
      5  CB        91.5990   -4.0900   17.0450 C.3    64  LYS64       0.0271
      6  CG        91.6970   -2.8060   17.8780 C.3    64  LYS64       0.0035
      7  CD        93.0740   -2.5860   18.4990 C.3    64  LYS64       0.0206
      8  CE        93.7900   -1.3710   17.9060 C.3    64  LYS64       0.1093
      9  NZ        93.0520   -0.0690   18.0460 N.3    64  LYS64      -0.1314
     10  N         89.4740   -0.3340   15.0870 N.3    83  THR83      -0.1218
     11  CA        89.7070    0.0400   13.6980 C.3    83  THR83       0.1862
     12  C         90.5470   -0.9560   12.9030 C.2    83  THR83       0.2287
     13  O         91.5870   -1.4290   13.3650 O.2    83  THR83      -0.2866
     14  CB        90.4210    1.4100   13.6210 C.3    83  THR83       0.1770
     15  OG1       89.5370    2.4370   14.0760 O.3    83  THR83      -0.2211
     16  CG2       90.8510    1.7200   12.1960 C.3    83  THR83       0.0375
     17  N         96.4880    6.2010   25.3880 N.3   108  ASN108     -0.1225
     18  CA        97.0040    5.2150   24.4510 C.3   108  ASN108      0.1785
     19  C         97.4860    5.8640   23.1610 C.2   108  ASN108      0.2597
     20  O         97.0470    6.9560   22.7850 O.2   108  ASN108     -0.2718
     21  CB        95.9330    4.1770   24.0960 C.3   108  ASN108      0.1169
     22  CG        95.0690    4.6100   22.9180 C.2   108  ASN108      0.2627
     23  OD1       95.5550    4.3540   21.7070 O.2   108  ASN108     -0.2716
     24  ND2       93.9910    5.1800   23.0920 N.am  108  ASN108     -0.0877
     25  N         98.4050    5.1670   22.5030 N.am  109  ARG109     -0.1979
     26  CA        98.9620    5.5720   21.2250 C.3   109  ARG109      0.1597
     27  C         99.2400    4.2720   20.4770 C.2   109  ARG109      0.2287
     28  O        100.3350    4.0500   19.9710 O.2   109  ARG109     -0.2864
     29  CB       100.2470    6.4020   21.4060 C.3   109  ARG109      0.0334
     30  CG       101.3350    5.7870   22.2690 C.3   109  ARG109      0.0492
     31  CD       102.5870    6.6540   22.2080 C.3   109  ARG109      0.2205
     32  NE       103.6860    6.1860   23.0580 N.pl3 109  ARG109     -0.0865
     33  CZ       103.9390    6.6480   24.2820 C.cat 109  ARG109      0.5346
     34  NH1      104.9610    6.1680   24.9750 N.pl3 109  ARG109      0.1354
     35  NH2      103.1760    7.5940   24.8120 N.pl3 109  ARG109      0.1354
     36  N         98.1370    3.0890   17.5480 N.3   110  GLY110     -0.1210
     37  CA        98.5020    3.2830   16.1560 C.3   110  GLY110      0.1956
     38  C         97.8680    2.2880   15.1950 C.2   110  GLY110      0.2612
     39  O         98.5250    1.8220   14.2720 O.2   110  GLY110     -0.2717
     40  N         96.5980    1.9630   15.4100 N.am  111  PHE111     -0.1962
     41  CA        95.8780    1.0200   14.5570 C.3   111  PHE111      0.1771
     42  C         96.5470   -0.3480   14.4190 C.2   111  PHE111      0.2619
     43  O         96.7370   -0.8420   13.3030 O.2   111  PHE111     -0.2715
     44  CB        95.6630    1.5990   13.1520 C.3   111  PHE111      0.0574
     45  CG        94.6730    2.7320   13.0930 C.ar  111  PHE111     -0.0200
     46  CD1       93.7390    2.9240   14.1100 C.ar  111  PHE111     -0.0042
     47  CD2       94.6470    3.5860   11.9890 C.ar  111  PHE111     -0.0042
     48  CE1       92.7920    3.9500   14.0260 C.ar  111  PHE111     -0.0003
     49  CE2       93.7060    4.6110   11.8930 C.ar  111  PHE111     -0.0003
     50  CZ        92.7740    4.7950   12.9160 C.ar  111  PHE111     -0.0000
     51  N         96.9110   -0.9640   15.5360 N.am  112  ASN112     -0.1972
     52  CA        97.5190   -2.2900   15.4740 C.3   112  ASN112      0.1688
     53  C         96.4090   -3.2840   15.1310 C.2   112  ASN112      0.2292
     54  O         95.4820   -3.4770   15.9140 O.2   112  ASN112     -0.2864
     55  CB        98.1590   -2.6580   16.8200 C.3   112  ASN112      0.1181
     56  CG        97.1780   -2.5680   17.9870 C.2   112  ASN112      0.2629
     57  OD1       96.6180   -1.5010   18.2720 O.2   112  ASN112     -0.2716
     58  ND2       96.9690   -3.6900   18.6680 N.am  112  ASN112     -0.0877
     59  N         86.7560    6.1260   10.6340 N.3   167  ASN167     -0.1240
     60  CA        87.6320    6.7260   11.6260 C.3   167  ASN167      0.1653
     61  C         88.6230    7.7390   11.0650 C.2   167  ASN167      0.2266
     62  O         89.6320    7.3780   10.4590 O.2   167  ASN167     -0.2867
     63  CB        88.3980    5.6440   12.3970 C.3   167  ASN167      0.1155
     64  CG        89.2510    6.2210   13.5310 C.2   167  ASN167      0.2627
     65  OD1       89.3360    7.4390   13.7110 O.2   167  ASN167     -0.2716
     66  ND2       89.8900    5.3440   14.2920 N.am  167  ASN167     -0.0877
     67  N         91.4210    9.4560   15.0370 N.3   170  SER170     -0.1203
     68  CA        92.4880    8.9100   15.8670 C.3   170  SER170      0.2005
     69  C         93.6540    9.8780   15.9250 C.2   170  SER170      0.2461
     70  O         94.0410   10.4560   14.9120 O.2   170  SER170     -0.2732
     71  CB        93.0020    7.5910   15.3040 C.3   170  SER170      0.2103
     72  OG        94.1990    7.2130   15.9720 O.3   170  SER170     -0.2182
     73  N         94.2300   10.0730   17.1160 N.am  171  PRO171     -0.2717
     74  CA        95.3640   10.9940   17.2300 C.3   171  PRO171      0.1535
     75  C         96.6990   10.2560   17.1160 C.2   171  PRO171      0.2598
     76  O         97.7630   10.8680   17.1930 O.2   171  PRO171     -0.2715
     77  CB        95.1670   11.5870   18.6160 C.3   171  PRO171      0.0310
     78  CG        94.6990   10.3870   19.3870 C.3   171  PRO171      0.0237
     79  CD        93.6820    9.7480   18.4470 C.3   171  PRO171      0.0939
     80  N         96.6420    8.9440   16.9140 N.am  172  ASN172     -0.1973
     81  CA        97.8630    8.1510   16.8510 C.3   172  ASN172      0.1688
     82  C         98.4000    7.7850   15.4670 C.2   172  ASN172      0.2292
     83  O         99.3340    6.9880   15.3460 O.2   172  ASN172     -0.2864
     84  CB        97.6820    6.8990   17.7110 C.3   172  ASN172      0.1181
     85  CG        97.2150    7.2400   19.1240 C.2   172  ASN172      0.2629
     86  OD1       97.7640    8.1320   19.7680 O.2   172  ASN172     -0.2716
     87  ND2       96.1990    6.5370   19.6050 N.am  172  ASN172     -0.0877
     88  N         83.2880    9.1420   12.7240 N.3   211  LYS211     -0.1245
     89  CA        83.7570    9.3570   14.0880 C.3   211  LYS211      0.1561
     90  C         84.7080   10.5450   14.1950 C.2   211  LYS211      0.2260
     91  O         85.8340   10.5060   13.6930 O.2   211  LYS211     -0.2867
     92  CB        84.4390    8.0890   14.6130 C.3   211  LYS211      0.0271
     93  CG        84.7360    8.1250   16.1100 C.3   211  LYS211      0.0035
     94  CD        85.1120    6.7420   16.6290 C.3   211  LYS211      0.0206
     95  CE        85.3890    6.7520   18.1320 C.3   211  LYS211      0.1093
     96  NZ        85.7430    5.3930   18.6140 N.3   211  LYS211     -0.1314
     97  N         86.0000   10.7230   19.9870 N.3   240  ASN240     -0.1225
     98  CA        87.2060    9.8870   20.0920 C.3   240  ASN240      0.1785
     99  C         88.0120   10.3930   21.2990 C.2   240  ASN240      0.2597
    100  O         87.5300   11.2190   22.0660 O.2   240  ASN240     -0.2718
    101  CB        88.0620   10.0070   18.8220 C.3   240  ASN240      0.1169
    102  CG        88.9130    8.7590   18.5540 C.2   240  ASN240      0.2627
    103  OD1       89.6610    8.2950   19.4190 O.2   240  ASN240     -0.2716
    104  ND2       88.8030    8.2170   17.3370 N.am  240  ASN240     -0.0877
    105  N         89.2430    9.9220   21.4640 N.am  241  THR241     -0.1953
    106  CA        90.0620   10.3480   22.5960 C.3   241  THR241      0.1897
    107  C         90.6330   11.7570   22.4340 C.2   241  THR241      0.2313
    108  O         90.7690   12.2550   21.3150 O.2   241  THR241     -0.2863
    109  CB        91.1980    9.3700   22.8260 C.3   241  THR241      0.1794
    110  OG1       92.0780    9.3830   21.6950 O.3   241  THR241     -0.2208
    111  CG2       90.6330    7.9750   23.0240 C.3   241  THR241      0.0378
    112  N         96.1200    9.5060   23.1170 N.3   258  GLY258     -0.1225
    113  CA        94.7680    9.9780   23.3550 C.3   258  GLY258      0.1811
    114  C         94.2800    9.5910   24.7450 C.2   258  GLY258      0.2280
    115  O         94.4600    8.4520   25.1890 O.2   258  GLY258     -0.2866
@<TRIPOS>BOND
     1    62    61    2
     2    59    60    1
     3    61    60    1
     4    60    63    1
     5    49    47   ar
     6    49    50   ar
     7    47    45   ar
     8    16    14    1
     9    63    64    1
    10    88    89    1
    11    12    13    2
    12    12    11    1
    13    50    48   ar
    14    45    44    1
    15    45    46   ar
    16    44    41    1
    17    43    42    2
    18    64    65    2
    19    64    66   am
    20    14    11    1
    21    14    15    1
    22    91    90    2
    23    11    10    1
    24    48    46   ar
    25    89    90    1
    26    89    92    1
    27    39    38    2
    28    42    41    1
    29    42    51   am
    30    41    40    1
    31     4     3    2
    32    92    93    1
    33    70    69    2
    34    67    68    1
    35    53    52    1
    36    53    54    2
    37    38    40   am
    38    38    37    1
    39    71    68    1
    40    71    72    1
    41    83    82    2
    42    82    81    1
    43    52    51    1
    44    52    55    1
    45     3     2    1
    46    68    69    1
    47    69    73   am
    48    93    94    1
    49    37    36    1
    50    94    95    1
    51    55    56    1
    52    81    80    1
    53    81    84    1
    54     2     5    1
    55     2     1    1
    56    80    75   am
    57     5     6    1
    58    75    76    2
    59    75    74    1
    60    73    74    1
    61    73    79    1
    62    74    77    1
    63   104   102   am
    64    84    85    1
    65     6     7    1
    66     8     9    1
    67     8     7    1
    68    56    57    2
    69    56    58   am
    70    95    96    1
    71    79    78    1
    72   102   101    1
    73   102   103    2
    74    77    78    1
    75   101    98    1
    76    85    87   am
    77    85    86    2
    78    28    27    2
    79    97    98    1
    80    98    99    1
    81    27    26    1
    82    26    29    1
    83    26    25    1
    84    99   105   am
    85    99   100    2
    86   108   107    2
    87    29    30    1
    88   105   106    1
    89   110   109    1
    90    23    22    2
    91    31    30    1
    92    31    32    1
    93   107   106    1
    94    25    19   am
    95   106   109    1
    96    20    19    2
    97   109   111    1
    98    22    24   am
    99    22    21    1
   100    32    33    2
   101   112   113    1
   102    19    18    1
   103   113   114    1
   104    21    18    1
   105    33    35    1
   106    33    34    1
   107    18    17    1
   108   114   115    2
