@<TRIPOS>MOLECULE
tmp/1f7bA00.pdb
 182 174 0 0 0
SMALL
GASTEIGER

@<TRIPOS>ATOM
      1  N          1.4790   20.3040    4.3110 N.3    10  ALA10      -0.1245
      2  CA         1.3490   18.9230    3.8280 C.3    10  ALA10       0.1562
      3  C          0.1640   19.0440    2.8640 C.2    10  ALA10       0.2260
      4  O         -0.9790   19.2480    3.2610 O.2    10  ALA10      -0.2867
      5  CB         1.0900   17.9780    4.9860 C.3    10  ALA10       0.0290
      6  N          4.8130   19.8400    1.0210 N.3    43  TYR43      -0.1241
      7  CA         5.2450   18.4440    1.2380 C.3    43  TYR43       0.1605
      8  C          4.1600   17.6410    0.5170 C.2    43  TYR43       0.2264
      9  O          3.0130   17.6610    0.9830 O.2    43  TYR43      -0.2867
     10  CB         5.2730   18.1820    2.7250 C.3    43  TYR43       0.0534
     11  CG         5.8240   16.8490    3.1800 C.ar   43  TYR43      -0.0201
     12  CD1        7.1850   16.6190    3.2840 C.ar   43  TYR43      -0.0009
     13  CD2        4.9350   15.8410    3.5150 C.ar   43  TYR43      -0.0009
     14  CE1        7.6710   15.3910    3.7340 C.ar   43  TYR43       0.0417
     15  CE2        5.4080   14.6060    3.9590 C.ar   43  TYR43       0.0417
     16  CZ         6.7610   14.4060    4.0590 C.ar   43  TYR43       0.1957
     17  OH         7.1720   13.1750    4.5230 O.3    43  TYR43      -0.2866
     18  N          2.1360   13.1910    1.1330 N.3    46  GLY46      -0.1210
     19  CA         2.2210   12.7460    2.5250 C.3    46  GLY46       0.1956
     20  C          0.9100   12.1210    2.9940 C.2    46  GLY46       0.2613
     21  O         -0.0360   11.9280    2.2060 O.2    46  GLY46      -0.2717
     22  N          0.8290   11.8960    4.3100 N.am   47  SER47      -0.1938
     23  CA        -0.4000   11.3620    4.8820 C.3    47  SER47       0.2055
     24  C         -1.5660   12.2980    4.5970 C.2    47  SER47       0.2643
     25  O         -2.6350   11.8490    4.2070 O.2    47  SER47      -0.2714
     26  CB        -0.2910   11.2200    6.4140 C.3    47  SER47       0.2130
     27  OG         0.8310   10.3700    6.6510 O.3    47  SER47      -0.2179
     28  N         -1.3950   13.6090    4.7510 N.am   48  THR48      -0.1950
     29  CA        -2.4470   14.5890    4.5090 C.3    48  THR48       0.1897
     30  C         -2.9470   14.6030    3.0810 C.2    48  THR48       0.2313
     31  O         -4.1050   14.9530    2.8470 O.2    48  THR48      -0.2863
     32  CB        -1.9130   16.0020    4.8630 C.3    48  THR48       0.1794
     33  OG1       -1.3720   15.9250    6.1960 O.3    48  THR48      -0.2208
     34  CG2       -2.9870   17.0670    4.7550 C.3    48  THR48       0.0378
     35  N         10.5430   10.2190    7.5040 N.3   136  TYR136     -0.1241
     36  CA         9.2270   10.6180    7.9840 C.3   136  TYR136      0.1605
     37  C          8.8490    9.6510    9.1110 C.2   136  TYR136      0.2264
     38  O          8.6190    8.4700    8.8800 O.2   136  TYR136     -0.2867
     39  CB         8.1940   10.6860    6.8750 C.3   136  TYR136      0.0534
     40  CG         6.7630   10.9570    7.2780 C.ar  136  TYR136     -0.0201
     41  CD1        6.3940   11.5110    8.4920 C.ar  136  TYR136     -0.0009
     42  CD2        5.7390   10.6800    6.3840 C.ar  136  TYR136     -0.0009
     43  CE1        5.0720   11.7520    8.8230 C.ar  136  TYR136      0.0417
     44  CE2        4.4120   10.8900    6.6880 C.ar  136  TYR136      0.0417
     45  CZ         4.0860   11.4310    7.9100 C.ar  136  TYR136      0.1957
     46  OH         2.7680   11.6640    8.2350 O.3   136  TYR136     -0.2866
     47  N          6.3120    8.7290   12.0490 N.3   138  ILE138     -0.1245
     48  CA         4.9510    8.9540   12.5670 C.3   138  ILE138      0.1561
     49  C          4.5010    7.6900   13.2890 C.2   138  ILE138      0.2260
     50  O          3.6550    6.9090   12.8530 O.2   138  ILE138     -0.2867
     51  CB         3.9710    9.4100   11.4770 C.3   138  ILE138      0.0252
     52  CG1        2.5860    9.6520   12.0820 C.3   138  ILE138      0.0019
     53  CG2        3.9170    8.4210   10.3200 C.3   138  ILE138      0.0019
     54  CD1        1.6350   10.4660   11.2390 C.3   138  ILE138      0.0001
     55  N          2.4930    7.1090   15.7000 N.3   140  PHE140     -0.1227
     56  CA         1.0750    6.9350   15.9780 C.3   140  PHE140      0.1736
     57  C          0.3390    6.1680   14.8890 C.2   140  PHE140      0.2595
     58  O         -0.6520    5.4800   15.1880 O.2   140  PHE140     -0.2718
     59  CB         0.4120    8.2870   16.2450 C.3   140  PHE140      0.0547
     60  CG        -1.0540    8.1590   16.5560 C.ar  140  PHE140     -0.0202
     61  CD1       -1.4740    7.6060   17.7520 C.ar  140  PHE140     -0.0042
     62  CD2       -1.9970    8.5860   15.6370 C.ar  140  PHE140     -0.0042
     63  CE1       -2.8250    7.4900   18.0340 C.ar  140  PHE140     -0.0003
     64  CE2       -3.3460    8.4740   15.9110 C.ar  140  PHE140     -0.0003
     65  CZ        -3.7580    7.9300   17.1090 C.ar  140  PHE140     -0.0000
     66  N          0.7690    6.2860   13.6330 N.am  141  LEU141     -0.1980
     67  CA         0.1500    5.5340   12.5600 C.3   141  LEU141      0.1596
     68  C          0.9580    4.2830   12.2130 C.2   141  LEU141      0.2287
     69  O          0.3300    3.2780   11.8770 O.2   141  LEU141     -0.2864
     70  CB        -0.0180    6.3590   11.2810 C.3   141  LEU141      0.0297
     71  CG        -0.8870    7.6190   11.3920 C.3   141  LEU141      0.0022
     72  CD1       -1.1120    8.2370   10.0180 C.3   141  LEU141      0.0001
     73  CD2       -2.2170    7.3350   12.0720 C.3   141  LEU141      0.0001
     74  N         11.1370   14.4170    9.5620 N.3   164  LYS164     -0.1245
     75  CA         9.8100   14.9980    9.7740 C.3   164  LYS164      0.1561
     76  C          9.3450   14.2950   11.0600 C.2   164  LYS164      0.2260
     77  O          9.0510   13.0930   11.0500 O.2   164  LYS164     -0.2867
     78  CB         8.8250   14.8860    8.4660 C.3   164  LYS164      0.0271
     79  CG         7.4380   15.2950    8.9530 C.3   164  LYS164      0.0035
     80  CD         6.4090   15.0580    7.8100 C.3   164  LYS164      0.0206
     81  CE         5.0120   15.4160    8.3710 C.3   164  LYS164      0.1093
     82  NZ         3.9950   14.8580    7.4860 N.3   164  LYS164     -0.1314
     83  N          7.0650   13.4600   14.2540 N.3   166  THR166     -0.1218
     84  CA         5.7140   13.5740   14.8160 C.3   166  THR166      0.1862
     85  C          5.5920   12.8730   16.1590 C.2   166  THR166      0.2287
     86  O          4.5370   13.0220   16.7820 O.2   166  THR166     -0.2866
     87  CB         4.6290   12.9700   13.9120 C.3   166  THR166      0.1770
     88  OG1        4.7820   11.5510   14.1080 O.3   166  THR166     -0.2211
     89  CG2        4.7260   13.3650   12.4600 C.3   166  THR166      0.0375
     90  N          6.0570   17.9520   13.1690 N.3   188  GLY188     -0.1210
     91  CA         4.9420   17.4070   12.4150 C.3   188  GLY188      0.1956
     92  C          3.6070   17.5460   13.1390 C.2   188  GLY188      0.2612
     93  O          2.5390   17.2840   12.5620 O.2   188  GLY188     -0.2717
     94  N          3.5840   18.1230   14.3130 N.am  189  PHE189     -0.1962
     95  CA         2.4050   18.3450   15.1330 C.3   189  PHE189      0.1771
     96  C          2.1160   19.8310   15.2660 C.2   189  PHE189      0.2620
     97  O          2.7270   20.5480   16.0760 O.2   189  PHE189     -0.2715
     98  CB         2.6330   17.7380   16.5360 C.3   189  PHE189      0.0574
     99  CG         4.1110   17.6460   16.8570 C.ar  189  PHE189     -0.0200
    100  CD1        4.9370   18.7600   16.8980 C.ar  189  PHE189     -0.0042
    101  CD2        4.6720   16.4040   17.1020 C.ar  189  PHE189     -0.0042
    102  CE1        6.2780   18.6360   17.1770 C.ar  189  PHE189     -0.0003
    103  CE2        6.0220   16.2830   17.3900 C.ar  189  PHE189     -0.0003
    104  CZ         6.8270   17.4010   17.4400 C.ar  189  PHE189     -0.0000
    105  N          1.1760   20.3340   14.4700 N.am  190  ASP190     -0.1957
    106  CA         0.8490   21.7530   14.3930 C.3   190  ASP190      0.1840
    107  C          0.3920   22.3610   15.7170 C.2   190  ASP190      0.2621
    108  O          0.7290   23.5100   16.0410 O.2   190  ASP190     -0.2715
    109  CB        -0.2680   21.9700   13.3580 C.3   190  ASP190      0.1450
    110  CG        -0.0600   21.2800   12.0240 C.2   190  ASP190      0.3671
    111  OD1        0.8740   20.4720   11.8160 O.co2 190  ASP190     -0.2456
    112  OD2       -0.8830   21.4960   11.1030 O.co2 190  ASP190     -0.2456
    113  N         -0.3010   21.5550   16.5270 N.am  191  GLU191     -0.1977
    114  CA        -0.7740   21.9730   17.8370 C.3   191  GLU191      0.1602
    115  C          0.3470   22.0540   18.8690 C.2   191  GLU191      0.2287
    116  O          0.0880   22.4240   20.0240 O.2   191  GLU191     -0.2864
    117  CB        -1.8920   21.0550   18.3430 C.3   191  GLU191      0.0415
    118  CG        -1.6480   19.5640   18.4060 C.3   191  GLU191      0.1163
    119  CD        -1.9490   18.8510   17.0970 C.2   191  GLU191      0.3649
    120  OE1       -1.2000   19.0590   16.1280 O.co2 191  GLU191     -0.2457
    121  OE2       -2.9350   18.0880   16.9620 O.co2 191  GLU191     -0.2457
    122  N          6.0770   20.8280    9.1060 N.3   205  ILE205     -0.1231
    123  CA         5.2940   20.3150    7.9590 C.3   205  ILE205      0.1692
    124  C          3.9360   19.9570    8.5540 C.2   205  ILE205      0.2593
    125  O          3.9190   19.1400    9.4890 O.2   205  ILE205     -0.2718
    126  CB         5.9770   19.0910    7.3370 C.3   205  ILE205      0.0266
    127  CG1        7.3060   19.4630    6.6820 C.3   205  ILE205      0.0019
    128  CG2        5.0390   18.4030    6.3450 C.3   205  ILE205      0.0020
    129  CD1        8.2290   18.2850    6.4240 C.3   205  ILE205      0.0001
    130  N          2.8310   20.5230    8.0650 N.am  206  GLY206     -0.1942
    131  CA         1.5510   20.2600    8.7140 C.3   206  GLY206      0.2014
    132  C          0.3360   20.4210    7.8210 C.2   206  GLY206      0.2640
    133  O          0.3730   21.1540    6.8330 O.2   206  GLY206     -0.2714
    134  N         -0.7350   19.7030    8.1900 N.am  207  SER207     -0.1935
    135  CA        -1.9750   19.7840    7.4330 C.3   207  SER207      0.2055
    136  C         -2.7610   21.0760    7.6570 C.2   207  SER207      0.2643
    137  O         -3.4000   21.5710    6.7170 O.2   207  SER207     -0.2714
    138  CB        -2.9270   18.6430    7.8670 C.3   207  SER207      0.2130
    139  OG        -3.2070   18.8080    9.2570 O.3   207  SER207     -0.2179
    140  N         -2.7090   21.6260    8.8740 N.am  208  THR208     -0.1950
    141  CA        -3.5280   22.8140    9.1510 C.3   208  THR208      0.1897
    142  C         -2.9500   24.0620    8.5050 C.2   208  THR208      0.2313
    143  O         -3.6940   25.0440    8.3600 O.2   208  THR208     -0.2863
    144  CB        -3.7860   23.0610   10.6520 C.3   208  THR208      0.1794
    145  OG1       -2.5730   23.4830   11.2730 O.3   208  THR208     -0.2208
    146  CG2       -4.2810   21.8110   11.3730 C.3   208  THR208      0.0378
    147  N         -7.7380   24.1470   15.7830 N.3   242  ILE242     -0.1245
    148  CA        -7.3490   22.7500   15.6020 C.3   242  ILE242      0.1561
    149  C         -8.2380   21.8210   16.4090 C.2   242  ILE242      0.2260
    150  O         -8.6920   20.7920   15.8740 O.2   242  ILE242     -0.2867
    151  CB        -5.8490   22.5320   15.8790 C.3   242  ILE242      0.0252
    152  CG1       -5.0160   23.2480   14.8120 C.3   242  ILE242      0.0019
    153  CG2       -5.5150   21.0380   15.9200 C.3   242  ILE242      0.0019
    154  CD1       -3.5040   23.2130   15.0410 C.3   242  ILE242      0.0001
    155  N        -10.2390   18.8830   14.5460 N.3   246  LEU246     -0.1245
    156  CA       -10.0990   17.4780   14.9230 C.3   246  LEU246      0.1561
    157  C        -11.4270   16.8440   15.3240 C.2   246  LEU246      0.2260
    158  O        -11.7490   15.7320   14.8760 O.2   246  LEU246     -0.2867
    159  CB        -9.0670   17.3110   16.0420 C.3   246  LEU246      0.0270
    160  CG        -7.6060   17.6250   15.6950 C.3   246  LEU246      0.0019
    161  CD1       -6.7950   17.6810   16.9860 C.3   246  LEU246      0.0001
    162  CD2       -7.0550   16.5810   14.7360 C.3   246  LEU246      0.0001
    163  N        -10.7800   15.8270   10.6180 N.3   250  LEU250     -0.1231
    164  CA        -9.6540   16.6010   10.1030 C.3   250  LEU250      0.1693
    165  C         -9.5980   16.8720    8.6180 C.2   250  LEU250      0.2592
    166  O         -9.5970   18.0550    8.2490 O.2   250  LEU250     -0.2718
    167  CB        -8.3380   15.9380   10.5400 C.3   250  LEU250      0.0284
    168  CG        -7.0170   16.4860   10.0030 C.3   250  LEU250      0.0019
    169  CD1       -6.6490   17.7800   10.7060 C.3   250  LEU250      0.0001
    170  CD2       -5.9070   15.4510   10.2480 C.3   250  LEU250      0.0001
    171  N         -9.5360   15.8200    7.8100 N.am  251  TYR251     -0.1976
    172  CA        -9.4230   15.9990    6.3700 C.3   251  TYR251      0.1639
    173  C        -10.5810   16.7840    5.7770 C.2   251  TYR251      0.2290
    174  O        -10.4010   17.7700    5.0670 O.2   251  TYR251     -0.2864
    175  CB        -9.3790   14.6110    5.6990 C.3   251  TYR251      0.0560
    176  CG        -8.0680   13.9200    6.0260 C.ar  251  TYR251     -0.0198
    177  CD1       -7.9000   13.2560    7.2340 C.ar  251  TYR251     -0.0009
    178  CD2       -7.0150   13.9380    5.1260 C.ar  251  TYR251     -0.0009
    179  CE1       -6.7040   12.6360    7.5410 C.ar  251  TYR251      0.0417
    180  CE2       -5.8180   13.3060    5.4200 C.ar  251  TYR251      0.0417
    181  CZ        -5.6740   12.6610    6.6290 C.ar  251  TYR251      0.1957
    182  OH        -4.4930   12.0340    6.9290 O.3   251  TYR251     -0.2866
@<TRIPOS>BOND
     1     8     9    2
     2     8     7    1
     3     6     7    1
     4    18    19    1
     5     7    10    1
     6    21    20    2
     7    19    20    1
     8    10    11    1
     9    31    30    2
    10     3     4    2
    11     3     2    1
    12    20    22   am
    13    30    29    1
    14    11    12   ar
    15    11    13   ar
    16    12    14   ar
    17    13    15   ar
    18    14    16   ar
    19     2     1    1
    20     2     5    1
    21    15    16   ar
    22    16    17    1
    23    25    24    2
    24    22    23    1
    25    29    28    1
    26    29    32    1
    27    24    28   am
    28    24    23    1
    29    34    32    1
    30    32    33    1
    31    23    26    1
    32   174   173    2
    33   178   180   ar
    34   178   176   ar
    35   180   181   ar
    36   175   176    1
    37   175   172    1
    38   173   172    1
    39   176   177   ar
    40   128   126    1
    41   172   171    1
    42    42    44   ar
    43    42    40   ar
    44    26    27    1
    45   129   127    1
    46   181   182    1
    47   181   179   ar
    48   127   126    1
    49    44    45   ar
    50   137   136    2
    51   133   132    2
    52    39    40    1
    53    39    36    1
    54   177   179   ar
    55    40    41   ar
    56   126   123    1
    57   135   136    1
    58   135   138    1
    59   135   134    1
    60    82    81    1
    61    35    36    1
    62   136   140   am
    63    80    81    1
    64    80    79    1
    65   171   165   am
    66   132   134   am
    67   132   131    1
    68   138   139    1
    69    45    46    1
    70    45    43   ar
    71   123   124    1
    72   123   122    1
    73    36    37    1
    74   130   124   am
    75   130   131    1
    76   166   165    2
    77   143   142    2
    78    78    79    1
    79    78    75    1
    80    41    43   ar
    81   142   141    1
    82   124   125    2
    83   165   164    1
    84   140   141    1
    85    38    37    2
    86   141   144    1
    87    74    75    1
    88    75    76    1
    89   168   170    1
    90   168   167    1
    91   168   169    1
    92    72    71    1
    93   164   167    1
    94   164   163    1
    95    53    51    1
    96   144   145    1
    97   144   146    1
    98    77    76    2
    99   112   110   ar
   100    54    52    1
   101    70    71    1
   102    70    67    1
   103    71    73    1
   104    51    52    1
   105    51    48    1
   106   111   110   ar
   107    69    68    2
   108   110   109    1
   109    47    48    1
   110    68    67    1
   111    91    92    1
   112    91    90    1
   113    89    87    1
   114    67    66    1
   115    93    92    2
   116    48    49    1
   117    50    49    2
   118    92    94   am
   119   109   106    1
   120    66    57   am
   121    87    88    1
   122    87    84    1
   123    83    84    1
   124    94    95    1
   125   106   105    1
   126   106   107    1
   127   105    96   am
   128   155   156    1
   129   162   160    1
   130   152   154    1
   131   152   151    1
   132    84    85    1
   133   158   157    2
   134    57    58    2
   135    57    56    1
   136   156   157    1
   137   156   159    1
   138    95    96    1
   139    95    98    1
   140    96    97    2
   141   148   147    1
   142   148   151    1
   143   148   149    1
   144    62    64   ar
   145    62    60   ar
   146   160   159    1
   147   160   161    1
   148    55    56    1
   149   107   108    2
   150   107   113   am
   151   150   149    2
   152   151   153    1
   153    64    65   ar
   154    56    59    1
   155   120   119   ar
   156    85    86    2
   157    59    60    1
   158   113   114    1
   159    98    99    1
   160    60    61   ar
   161    99   100   ar
   162    99   101   ar
   163   100   102   ar
   164   121   119   ar
   165   119   118    1
   166   101   103   ar
   167    65    63   ar
   168   102   104   ar
   169   103   104   ar
   170    61    63   ar
   171   114   117    1
   172   114   115    1
   173   117   118    1
   174   115   116    2
