@<TRIPOS>MOLECULE
tmp/1f7kB00.pdb
 102 98 0 0 0
SMALL
GASTEIGER

@<TRIPOS>ATOM
      1  N        -11.9910   37.2040   28.6660 N.3    35  VAL35      -0.1245
      2  CA       -12.1020   37.0440   30.0980 C.3    35  VAL35       0.1561
      3  C        -12.1140   35.5320   30.3130 C.2    35  VAL35       0.2260
      4  O        -13.0910   34.8570   29.9930 O.2    35  VAL35      -0.2867
      5  CB       -13.4040   37.6680   30.6080 C.3    35  VAL35       0.0252
      6  CG1      -13.5150   37.5120   32.0940 C.3    35  VAL35       0.0019
      7  CG2      -13.4440   39.1250   30.2400 C.3    35  VAL35       0.0019
      8  N         -4.9480   40.1910   41.2730 N.3    52  ILE52      -0.1245
      9  CA        -4.6390   39.2220   40.2350 C.3    52  ILE52       0.1561
     10  C         -3.4620   39.7690   39.4380 C.2    52  ILE52       0.2260
     11  O         -3.5610   40.8190   38.8100 O.2    52  ILE52      -0.2867
     12  CB        -5.8230   39.0100   39.2790 C.3    52  ILE52       0.0252
     13  CG1       -7.0000   38.3740   40.0160 C.3    52  ILE52       0.0019
     14  CG2       -5.3990   38.0990   38.1320 C.3    52  ILE52       0.0019
     15  CD1       -8.2080   38.1990   39.1430 C.3    52  ILE52       0.0001
     16  N         -5.0620   42.1640   32.7190 N.3    66  LEU66      -0.1231
     17  CA        -5.7100   43.4560   32.8760 C.3    66  LEU66       0.1693
     18  C         -6.5890   43.4380   34.1180 C.2    66  LEU66       0.2593
     19  O         -6.7380   42.3950   34.7540 O.2    66  LEU66      -0.2718
     20  CB        -6.5630   43.7670   31.6450 C.3    66  LEU66       0.0284
     21  CG        -5.9660   44.6290   30.5300 C.3    66  LEU66       0.0019
     22  CD1       -4.4690   44.4900   30.4800 C.3    66  LEU66       0.0001
     23  CD2       -6.5750   44.2060   29.2110 C.3    66  LEU66       0.0001
     24  N         -7.1840   44.5810   34.4540 N.am   67  GLY67      -0.1942
     25  CA        -8.0110   44.6490   35.6450 C.3    67  GLY67       0.2014
     26  C         -7.1830   44.0300   36.7500 C.2    67  GLY67       0.2639
     27  O         -5.9760   44.2600   36.8090 O.2    67  GLY67      -0.2714
     28  N         -7.8010   43.2550   37.6300 N.am   68  GLY68      -0.1939
     29  CA        -7.0180   42.6130   38.6560 C.3    68  GLY68       0.2014
     30  C         -7.4160   42.8760   40.0780 C.2    68  GLY68       0.2639
     31  O         -6.7230   42.4500   40.9920 O.2    68  GLY68      -0.2714
     32  N         -8.5170   43.5650   40.3080 N.am   69  VAL69      -0.1963
     33  CA        -8.8740   43.7960   41.6880 C.3    69  VAL69       0.1727
     34  C        -10.0820   42.9850   42.0960 C.2    69  VAL69       0.2616
     35  O        -11.1620   43.1340   41.5400 O.2    69  VAL69      -0.2715
     36  CB        -9.1320   45.2720   41.9420 C.3    69  VAL69       0.0290
     37  CG1       -9.5450   45.4900   43.3850 C.3    69  VAL69       0.0023
     38  CG2       -7.8870   46.0560   41.6070 C.3    69  VAL69       0.0023
     39  N         -9.8870   42.1000   43.0600 N.am   70  ILE70      -0.1963
     40  CA       -10.9760   41.2910   43.5600 C.3    70  ILE70       0.1727
     41  C        -11.3730   41.9460   44.8760 C.2    70  ILE70       0.2616
     42  O        -10.6000   41.9260   45.8360 O.2    70  ILE70      -0.2715
     43  CB       -10.5300   39.8340   43.8280 C.3    70  ILE70       0.0290
     44  CG1       -9.7860   39.2680   42.6100 C.3    70  ILE70       0.0022
     45  CG2      -11.7350   38.9810   44.1880 C.3    70  ILE70       0.0023
     46  CD1      -10.4600   39.5370   41.2970 C.3    70  ILE70       0.0001
     47  N        -12.5730   42.5290   44.9080 N.am   71  ASP71      -0.1971
     48  CA       -13.1010   43.2190   46.0880 C.3    71  ASP71       0.1709
     49  C        -13.5490   42.2990   47.2180 C.2    71  ASP71       0.2293
     50  O        -14.1430   41.2440   46.9850 O.2    71  ASP71      -0.2864
     51  CB       -14.2930   44.1000   45.7060 C.3    71  ASP71       0.1436
     52  CG       -13.9390   45.1680   44.7020 C.2    71  ASP71       0.3671
     53  OD1      -13.3800   46.2050   45.1020 O.co2  71  ASP71      -0.2456
     54  OD2      -14.2370   44.9820   43.5100 O.co2  71  ASP71      -0.2456
     55  N        -16.8010   40.7230   46.9460 N.3    74  TYR74      -0.1241
     56  CA       -17.1040   39.9890   45.7280 C.3    74  TYR74       0.1605
     57  C        -17.2620   38.5220   46.0930 C.2    74  TYR74       0.2264
     58  O        -16.4240   37.9580   46.7940 O.2    74  TYR74      -0.2867
     59  CB       -15.9930   40.1510   44.7010 C.3    74  TYR74       0.0534
     60  CG       -16.3090   39.4900   43.3810 C.ar   74  TYR74      -0.0201
     61  CD1      -15.5420   38.4360   42.9120 C.ar   74  TYR74      -0.0009
     62  CD2      -17.3690   39.9290   42.5910 C.ar   74  TYR74      -0.0009
     63  CE1      -15.8140   37.8350   41.6980 C.ar   74  TYR74       0.0417
     64  CE2      -17.6470   39.3250   41.3680 C.ar   74  TYR74       0.0417
     65  CZ       -16.8610   38.2780   40.9350 C.ar   74  TYR74       0.1957
     66  OH       -17.1380   37.6590   39.7440 O.3    74  TYR74      -0.2866
     67  N        -17.7740   34.2180   40.7130 N.3    77  GLU77      -0.1231
     68  CA       -16.6290   33.5250   40.1630 C.3    77  GLU77       0.1699
     69  C        -15.5580   34.5090   39.7560 C.2    77  GLU77       0.2592
     70  O        -15.8490   35.5400   39.1480 O.2    77  GLU77      -0.2718
     71  CB       -17.0700   32.7300   38.9490 C.3    77  GLU77       0.0402
     72  CG       -16.0630   31.7180   38.4770 C.3    77  GLU77       0.1161
     73  CD       -16.1960   31.4590   37.0040 C.2    77  GLU77       0.3649
     74  OE1      -15.1890   31.0610   36.3700 O.co2  77  GLU77      -0.2457
     75  OE2      -17.3200   31.6570   36.4850 O.co2  77  GLU77      -0.2457
     76  N        -14.3150   34.1780   40.0770 N.am   78  ILE78      -0.1966
     77  CA       -13.1960   35.0360   39.7520 C.3    78  ILE78       0.1727
     78  C        -12.7940   34.8860   38.3000 C.2    78  ILE78       0.2617
     79  O        -12.6440   33.7770   37.7930 O.2    78  ILE78      -0.2715
     80  CB       -11.9940   34.7060   40.6330 C.3    78  ILE78       0.0290
     81  CG1      -12.1260   35.4330   41.9660 C.3    78  ILE78       0.0022
     82  CG2      -10.7090   35.1200   39.9410 C.3    78  ILE78       0.0023
     83  CD1      -11.0510   35.0620   42.9570 C.3    78  ILE78       0.0001
     84  N        -12.5960   36.0180   37.6350 N.am   79  GLY79      -0.1940
     85  CA       -12.2060   35.9870   36.2450 C.3    79  GLY79       0.2014
     86  C        -10.8670   36.6550   36.0560 C.2    79  GLY79       0.2639
     87  O        -10.4530   37.4550   36.8910 O.2    79  GLY79      -0.2714
     88  N        -10.1860   36.3220   34.9660 N.am   80  VAL80      -0.1963
     89  CA        -8.8830   36.8930   34.6560 C.3    80  VAL80       0.1727
     90  C         -8.9270   37.5030   33.2580 C.2    80  VAL80       0.2616
     91  O         -9.0280   36.7850   32.2720 O.2    80  VAL80      -0.2715
     92  CB        -7.7880   35.8070   34.7060 C.3    80  VAL80       0.0290
     93  CG1       -6.4780   36.3530   34.1360 C.3    80  VAL80       0.0023
     94  CG2       -7.5880   35.3370   36.1490 C.3    80  VAL80       0.0023
     95  N         -8.8610   38.8280   33.1760 N.am   81  ILE81      -0.1977
     96  CA        -8.9070   39.5020   31.8860 C.3    81  ILE81       0.1596
     97  C         -7.5300   39.4240   31.2350 C.2    81  ILE81       0.2287
     98  O         -6.5410   39.8880   31.7920 O.2    81  ILE81      -0.2864
     99  CB        -9.3420   40.9550   32.0680 C.3    81  ILE81       0.0276
    100  CG1      -10.5920   40.9880   32.9360 C.3    81  ILE81       0.0022
    101  CG2       -9.6340   41.5960   30.7330 C.3    81  ILE81       0.0022
    102  CD1      -10.8940   42.3440   33.4880 C.3    81  ILE81       0.0001
@<TRIPOS>BOND
     1     1     2    1
     2    23    21    1
     3     4     3    2
     4     2     3    1
     5     2     5    1
     6     7     5    1
     7    22    21    1
     8    21    20    1
     9     5     6    1
    10   101    99    1
    11    97    98    2
    12    97    96    1
    13    20    17    1
    14    96    99    1
    15    96    95    1
    16    99   100    1
    17    91    90    2
    18    16    17    1
    19    17    18    1
    20   100   102    1
    21    95    90   am
    22    90    89    1
    23    18    24   am
    24    18    19    2
    25    93    92    1
    26    24    25    1
    27    89    92    1
    28    89    88    1
    29    92    94    1
    30    88    86   am
    31    25    26    1
    32    86    85    1
    33    86    87    2
    34    85    84    1
    35    74    73   ar
    36    75    73   ar
    37    26    27    2
    38    26    28   am
    39    73    72    1
    40    28    29    1
    41    84    78   am
    42    79    78    2
    43    14    12    1
    44    78    77    1
    45    72    71    1
    46    29    30    1
    47    11    10    2
    48    71    68    1
    49    15    13    1
    50    70    69    2
    51    12    13    1
    52    12     9    1
    53    10     9    1
    54    66    65    1
    55    77    76    1
    56    77    80    1
    57    69    76   am
    58    69    68    1
    59    82    80    1
    60    30    32   am
    61    30    31    2
    62    68    67    1
    63     9     8    1
    64    32    33    1
    65    80    81    1
    66    65    64   ar
    67    65    63   ar
    68    46    44    1
    69    64    62   ar
    70    35    34    2
    71    38    36    1
    72    33    36    1
    73    33    34    1
    74    63    61   ar
    75    36    37    1
    76    81    83    1
    77    34    39   am
    78    62    60   ar
    79    44    43    1
    80    61    60   ar
    81    39    40    1
    82    60    59    1
    83    54    52   ar
    84    40    43    1
    85    40    41    1
    86    43    45    1
    87    59    56    1
    88    52    53   ar
    89    52    51    1
    90    41    47   am
    91    41    42    2
    92    47    48    1
    93    51    48    1
    94    56    57    1
    95    56    55    1
    96    48    49    1
    97    57    58    2
    98    50    49    2
