@<TRIPOS>MOLECULE
tmp/1f7lA00.pdb
 85 84 0 0 0
SMALL
GASTEIGER

@<TRIPOS>ATOM
      1  N         -6.0980   15.3310   57.5730 N.3    49  PHE49      -0.1241
      2  CA        -6.0150   15.8180   56.2040 C.3    49  PHE49       0.1605
      3  C         -4.5490   16.0760   55.8460 C.2    49  PHE49       0.2264
      4  O         -4.0590   15.6160   54.8090 O.2    49  PHE49      -0.2867
      5  CB        -6.8270   17.1180   56.0580 C.3    49  PHE49       0.0534
      6  CG        -6.7850   17.7160   54.6740 C.ar   49  PHE49      -0.0203
      7  CD1       -7.7420   17.3790   53.7240 C.ar   49  PHE49      -0.0042
      8  CD2       -5.7940   18.6260   54.3240 C.ar   49  PHE49      -0.0042
      9  CE1       -7.7100   17.9500   52.4490 C.ar   49  PHE49      -0.0003
     10  CE2       -5.7540   19.1970   53.0580 C.ar   49  PHE49      -0.0003
     11  CZ        -6.7140   18.8600   52.1200 C.ar   49  PHE49      -0.0000
     12  N         -2.4410   12.9130   55.4900 N.3    52  GLY52      -0.1210
     13  CA        -2.7420   12.1860   54.2670 C.3    52  GLY52       0.1956
     14  C         -2.1130   12.8480   53.0500 C.2    52  GLY52       0.2611
     15  O         -1.6350   12.1740   52.1440 O.2    52  GLY52      -0.2717
     16  N         -2.1180   14.1770   53.0260 N.am   53  ARG53      -0.1979
     17  CA        -1.5210   14.8960   51.9060 C.3    53  ARG53       0.1597
     18  C          0.0010   14.7320   51.9740 C.2    53  ARG53       0.2287
     19  O          0.6540   14.6030   50.9380 O.2    53  ARG53      -0.2864
     20  CB        -1.9190   16.3850   51.9430 C.3    53  ARG53       0.0334
     21  CG        -3.0890   16.7560   51.0120 C.3    53  ARG53       0.0492
     22  CD        -4.3160   15.8940   51.2320 C.3    53  ARG53       0.2205
     23  NE        -5.4190   16.2290   50.3220 N.pl3  53  ARG53      -0.0865
     24  CZ        -6.5690   15.5620   50.2800 C.cat  53  ARG53       0.5346
     25  NH1       -6.7610   14.5250   51.0870 N.pl3  53  ARG53       0.1354
     26  NH2       -7.5340   15.9320   49.4450 N.pl3  53  ARG53       0.1354
     27  N        -16.7220   13.3660   42.3630 N.3    84  ASN84      -0.1225
     28  CA       -17.1260   12.2200   43.1780 C.3    84  ASN84       0.1785
     29  C        -16.2820   12.1110   44.4390 C.2    84  ASN84       0.2598
     30  O        -16.5340   11.2470   45.2760 O.2    84  ASN84      -0.2718
     31  CB       -16.9840   10.9010   42.4140 C.3    84  ASN84       0.1169
     32  CG       -17.9590   10.7760   41.2690 C.2    84  ASN84       0.2627
     33  OD1      -19.1600   10.9930   41.4320 O.2    84  ASN84      -0.2716
     34  ND2      -17.4510   10.4040   40.1050 N.am   84  ASN84      -0.0877
     35  N        -15.2780   12.9720   44.5680 N.am   85  GLY85      -0.1942
     36  CA       -14.4240   12.9200   45.7410 C.3    85  GLY85       0.2014
     37  C        -13.1530   12.1070   45.5390 C.2    85  GLY85       0.2639
     38  O        -12.3680   11.9450   46.4750 O.2    85  GLY85      -0.2714
     39  N        -12.9410   11.5970   44.3300 N.am   86  LYS86      -0.1963
     40  CA       -11.7410   10.8100   44.0420 C.3    86  LYS86       0.1713
     41  C        -10.5340   11.7300   43.8830 C.2    86  LYS86       0.2458
     42  O        -10.5570   12.6600   43.0780 O.2    86  LYS86      -0.2730
     43  CB       -11.9110   10.0140   42.7450 C.3    86  LYS86       0.0311
     44  CG       -10.6720    9.2040   42.3530 C.3    86  LYS86       0.0038
     45  CD       -10.7890    8.6790   40.9260 C.3    86  LYS86       0.0206
     46  CE        -9.5480    7.9060   40.4850 C.3    86  LYS86       0.1093
     47  NZ        -9.4840    6.5450   41.0780 N.3    86  LYS86      -0.1314
     48  N         -9.4610   11.4780   44.6470 N.am   87  PRO87      -0.2727
     49  CA        -8.2620   12.3080   44.5510 C.3    87  PRO87       0.1402
     50  C         -7.3860   11.9130   43.3770 C.2    87  PRO87       0.2269
     51  O         -7.4290   10.7680   42.9100 O.2    87  PRO87      -0.2865
     52  CB        -7.5560   12.0430   45.8740 C.3    87  PRO87       0.0296
     53  CG        -7.8380   10.5680   46.0900 C.3    87  PRO87       0.0237
     54  CD        -9.3150   10.4440   45.6940 C.3    87  PRO87       0.0939
     55  N         -4.1740    7.1760   45.8710 N.3   102  SER102     -0.1202
     56  CA        -5.2430    6.6980   46.7480 C.3   102  SER102      0.2020
     57  C         -4.7820    6.9060   48.1920 C.2   102  SER102      0.2619
     58  O         -3.6080    6.7300   48.4930 O.2   102  SER102     -0.2717
     59  CB        -5.5740    5.2180   46.5170 C.3   102  SER102      0.2103
     60  OG        -6.7130    4.8630   47.2950 O.3   102  SER102     -0.2182
     61  N         -5.7120    7.2770   49.0710 N.am  103  ILE103     -0.1965
     62  CA        -5.4170    7.5630   50.4740 C.3   103  ILE103      0.1727
     63  C         -6.2990    6.7280   51.3880 C.2   103  ILE103      0.2617
     64  O         -7.4470    6.4320   51.0410 O.2   103  ILE103     -0.2715
     65  CB        -5.6830    9.0630   50.7740 C.3   103  ILE103      0.0290
     66  CG1       -4.7780    9.9120   49.8850 C.3   103  ILE103      0.0022
     67  CG2       -5.4950    9.3820   52.2830 C.3   103  ILE103      0.0023
     68  CD1       -5.0880   11.4210   49.9380 C.3   103  ILE103      0.0001
     69  N         -5.7510    6.3340   52.5410 N.am  104  THR104     -0.1937
     70  CA        -6.5070    5.5670   53.5370 C.3   104  THR104      0.2028
     71  C         -6.0670    5.9760   54.9490 C.2   104  THR104      0.2642
     72  O         -4.8960    6.2830   55.1740 O.2   104  THR104     -0.2714
     73  CB        -6.3230    4.0340   53.3290 C.3   104  THR104      0.1808
     74  OG1       -7.1640    3.3120   54.2460 O.3   104  THR104     -0.2208
     75  CG2       -4.8780    3.6170   53.5280 C.3   104  THR104      0.0379
     76  N         -7.0060    5.9780   55.8910 N.am  105  HIS105     -0.1973
     77  CA        -6.7340    6.3840   57.2660 C.3   105  HIS105      0.1656
     78  C         -6.9860    5.2990   58.3140 C.2   105  HIS105      0.2291
     79  O         -7.8880    4.4710   58.1650 O.2   105  HIS105     -0.2864
     80  CB        -7.6320    7.5720   57.6220 C.3   105  HIS105      0.0771
     81  CG        -7.3710    8.8050   56.8170 C.ar  105  HIS105      0.0820
     82  ND1       -6.4420    9.7490   57.1920 N.ar  105  HIS105     -0.2267
     83  CD2       -7.9210    9.2540   55.6630 C.ar  105  HIS105      0.1154
     84  CE1       -6.4270   10.7290   56.3050 C.ar  105  HIS105      0.1986
     85  NE2       -7.3150   10.4510   55.3660 N.ar  105  HIS105     -0.2212
@<TRIPOS>BOND
     1    34    32   am
     2    46    45    1
     3    46    47    1
     4    45    44    1
     5    32    33    2
     6    32    31    1
     7    44    43    1
     8    27    28    1
     9    31    28    1
    10    43    40    1
    11    51    50    2
    12    42    41    2
    13    28    29    1
    14    50    49    1
    15    41    40    1
    16    41    48   am
    17    40    39    1
    18    39    37   am
    19    29    35   am
    20    29    30    2
    21    49    48    1
    22    49    52    1
    23    35    36    1
    24    48    54    1
    25    37    36    1
    26    37    38    2
    27    54    53    1
    28    55    56    1
    29    52    53    1
    30    59    56    1
    31    59    60    1
    32    56    57    1
    33    57    58    2
    34    57    61   am
    35    61    62    1
    36    26    24    1
    37    66    68    1
    38    66    65    1
    39    24    23    2
    40    24    25    1
    41    23    22    1
    42    62    65    1
    43    62    63    1
    44    65    67    1
    45    19    18    2
    46    21    22    1
    47    21    20    1
    48    64    63    2
    49    63    69   am
    50    17    20    1
    51    17    18    1
    52    17    16    1
    53    11     9   ar
    54    11    10   ar
    55    15    14    2
    56     9     7   ar
    57    69    70    1
    58    16    14   am
    59    14    13    1
    60    10     8   ar
    61    73    75    1
    62    73    70    1
    63    73    74    1
    64    70    71    1
    65     7     6   ar
    66    13    12    1
    67     8     6   ar
    68     6     5    1
    69     4     3    2
    70    71    72    2
    71    71    76   am
    72    85    83   ar
    73    85    84   ar
    74    83    81   ar
    75     3     2    1
    76    76    77    1
    77     5     2    1
    78     2     1    1
    79    84    82   ar
    80    81    82   ar
    81    81    80    1
    82    77    80    1
    83    77    78    1
    84    79    78    2
