@<TRIPOS>MOLECULE
tmp/1f7qC00.pdb
 95 90 0 0 0
SMALL
GASTEIGER

@<TRIPOS>ATOM
      1  N         20.6840   19.4600    0.7700 N.3    35  VAL35      -0.1245
      2  CA        21.5770   18.7830   -0.1370 C.3    35  VAL35       0.1561
      3  C         22.5110   19.8930   -0.5960 C.2    35  VAL35       0.2260
      4  O         22.1180   20.7830   -1.3500 O.2    35  VAL35      -0.2867
      5  CB        20.8050   18.1760   -1.3120 C.3    35  VAL35       0.0252
      6  CG1       21.7540   17.4490   -2.2530 C.3    35  VAL35       0.0019
      7  CG2       19.7670   17.2080   -0.7790 C.3    35  VAL35       0.0019
      8  N         30.5060    8.9640    0.2480 N.3    52  ILE52      -0.1245
      9  CA        30.5150   10.3020    0.8110 C.3    52  ILE52       0.1561
     10  C         30.3700   10.0990    2.2910 C.2    52  ILE52       0.2260
     11  O         29.4300    9.4600    2.7550 O.2    52  ILE52      -0.2867
     12  CB        29.3620   11.1680    0.2960 C.3    52  ILE52       0.0252
     13  CG1       29.5320   11.4030   -1.2060 C.3    52  ILE52       0.0019
     14  CG2       29.3630   12.5090    1.0180 C.3    52  ILE52       0.0019
     15  CD1       28.4000   12.1340   -1.8400 C.3    52  ILE52       0.0001
     16  N         24.6610   12.6150    5.8130 N.3    66  LEU66      -0.1231
     17  CA        23.9910   11.3490    5.6440 C.3    66  LEU66       0.1693
     18  C         24.6310   10.5340    4.5370 C.2    66  LEU66       0.2593
     19  O         24.4230   10.8080    3.3500 O.2    66  LEU66      -0.2718
     20  CB        22.5200   11.5940    5.3500 C.3    66  LEU66       0.0284
     21  CG        21.8770   12.5860    6.3170 C.3    66  LEU66       0.0019
     22  CD1       20.4280   12.7460    5.9410 C.3    66  LEU66       0.0001
     23  CD2       22.0210   12.1080    7.7640 C.3    66  LEU66       0.0001
     24  N         25.4140    9.5350    4.9500 N.am   67  GLY67      -0.1942
     25  CA        26.1040    8.6500    4.0250 C.3    67  GLY67       0.2014
     26  C         25.5860    8.6980    2.6040 C.2    67  GLY67       0.2639
     27  O         24.4060    8.4800    2.3400 O.2    67  GLY67      -0.2714
     28  N         26.4800    9.0020    1.6810 N.am   68  GLY68      -0.1939
     29  CA        26.0860    9.0680    0.3000 C.3    68  GLY68       0.2014
     30  C         26.8340    8.0860   -0.5700 C.2    68  GLY68       0.2639
     31  O         28.0350    7.8630   -0.4140 O.2    68  GLY68      -0.2714
     32  N         26.0910    7.4770   -1.4850 N.am   69  VAL69      -0.1963
     33  CA        26.6570    6.5410   -2.4320 C.3    69  VAL69       0.1727
     34  C         26.6890    7.2100   -3.8090 C.2    69  VAL69       0.2616
     35  O         25.6640    7.6790   -4.3260 O.2    69  VAL69      -0.2715
     36  CB        25.8180    5.2700   -2.5460 C.3    69  VAL69       0.0290
     37  CG1       26.5140    4.2920   -3.4680 C.3    69  VAL69       0.0023
     38  CG2       25.5960    4.6760   -1.1910 C.3    69  VAL69       0.0023
     39  N         27.8790    7.2670   -4.3870 N.am   70  ILE70      -0.1963
     40  CA        28.0570    7.8410   -5.7010 C.3    70  ILE70       0.1727
     41  C         28.2640    6.6460   -6.6270 C.2    70  ILE70       0.2616
     42  O         29.2810    5.9600   -6.5310 O.2    70  ILE70      -0.2715
     43  CB        29.3040    8.7550   -5.7390 C.3    70  ILE70       0.0290
     44  CG1       29.1980    9.8370   -4.6530 C.3    70  ILE70       0.0022
     45  CG2       29.4620    9.3820   -7.1240 C.3    70  ILE70       0.0023
     46  CD1       27.9660   10.6790   -4.7320 C.3    70  ILE70       0.0001
     47  N         27.2960    6.3790   -7.4980 N.am   71  ASP71      -0.1971
     48  CA        27.3960    5.2560   -8.4330 C.3    71  ASP71       0.1709
     49  C         28.4450    5.4420   -9.5240 C.2    71  ASP71       0.2293
     50  O         28.7800    6.5620   -9.9040 O.2    71  ASP71      -0.2864
     51  CB        26.0540    5.0060   -9.1090 C.3    71  ASP71       0.1436
     52  CG        25.0240    4.5160   -8.1550 C.2    71  ASP71       0.3671
     53  OD1       25.1970    3.3980   -7.6250 O.co2  71  ASP71      -0.2456
     54  OD2       24.0440    5.2540   -7.9280 O.co2  71  ASP71      -0.2456
     55  N         26.8100    7.2610  -12.4230 N.3    74  TYR74      -0.1241
     56  CA        26.3570    8.6340  -12.1750 C.3    74  TYR74       0.1605
     57  C         27.2210    9.7130  -12.8300 C.2    74  TYR74       0.2264
     58  O         28.4360    9.7680  -12.6220 O.2    74  TYR74      -0.2867
     59  CB        26.2850    8.8790  -10.6750 C.3    74  TYR74       0.0534
     60  CG        25.8230   10.2610  -10.3060 C.ar   74  TYR74      -0.0201
     61  CD1       26.7090   11.1910   -9.7770 C.ar   74  TYR74      -0.0009
     62  CD2       24.4870   10.6320  -10.4520 C.ar   74  TYR74      -0.0009
     63  CE1       26.2750   12.4610   -9.3940 C.ar   74  TYR74       0.0417
     64  CE2       24.0430   11.8950  -10.0720 C.ar   74  TYR74       0.0417
     65  CZ        24.9390   12.8010   -9.5410 C.ar   74  TYR74       0.1957
     66  OH        24.4980   14.0300   -9.1140 O.3    74  TYR74      -0.2866
     67  N         26.2770   16.1990  -10.9280 N.3    77  GLU77      -0.1231
     68  CA        27.2030   16.7360   -9.9440 C.3    77  GLU77       0.1699
     69  C         26.9270   16.1500   -8.5680 C.2    77  GLU77       0.2592
     70  O         25.7950   15.8080   -8.2340 O.2    77  GLU77      -0.2718
     71  CB        27.1220   18.2540   -9.8800 C.3    77  GLU77       0.0402
     72  CG        25.8290   18.7820   -9.3420 C.3    77  GLU77       0.1161
     73  CD        25.9160   20.2600   -9.0780 C.2    77  GLU77       0.3649
     74  OE1       26.6530   20.6480   -8.1360 O.co2  77  GLU77      -0.2457
     75  OE2       25.2650   21.0240   -9.8260 O.co2  77  GLU77      -0.2457
     76  N         27.9830   16.0310   -7.7800 N.am   78  ILE78      -0.1966
     77  CA        27.8730   15.4720   -6.4490 C.3    78  ILE78       0.1727
     78  C         27.2190   16.4330   -5.4570 C.2    78  ILE78       0.2616
     79  O         27.4980   17.6340   -5.4400 O.2    78  ILE78      -0.2715
     80  CB        29.2580   15.0580   -5.9370 C.3    78  ILE78       0.0290
     81  CG1       29.7420   13.8580   -6.7390 C.3    78  ILE78       0.0022
     82  CG2       29.2110   14.7410   -4.4690 C.3    78  ILE78       0.0023
     83  CD1       30.8590   14.1900   -7.6950 C.3    78  ILE78       0.0001
     84  N         26.3330   15.8820   -4.6390 N.am   79  GLY79      -0.1955
     85  CA        25.6490   16.6700   -3.6370 C.3    79  GLY79       0.1869
     86  C         25.7810   15.9580   -2.3030 C.2    79  GLY79       0.2309
     87  O         25.6710   14.7330   -2.2390 O.2    79  GLY79      -0.2863
     88  N         24.2670   15.3990    1.3860 N.3    81  ILE81      -0.1245
     89  CA        23.0870   15.5570    2.2270 C.3    81  ILE81       0.1561
     90  C         23.5390   15.7790    3.6720 C.2    81  ILE81       0.2260
     91  O         24.2090   14.9390    4.2760 O.2    81  ILE81      -0.2867
     92  CB        22.1820   14.3360    2.1340 C.3    81  ILE81       0.0252
     93  CG1       21.7020   14.1820    0.6930 C.3    81  ILE81       0.0019
     94  CG2       21.0110   14.5020    3.0690 C.3    81  ILE81       0.0019
     95  CD1       21.0630   12.8680    0.3880 C.3    81  ILE81       0.0001
@<TRIPOS>BOND
     1    57    58    2
     2    57    56    1
     3    55    56    1
     4    56    59    1
     5    67    68    1
     6    59    60    1
     7    62    60   ar
     8    62    64   ar
     9    60    61   ar
    10    64    65   ar
    11    68    71    1
    12    68    69    1
    13    50    49    2
    14    71    72    1
    15    75    73   ar
    16    61    63   ar
    17    65    63   ar
    18    65    66    1
    19    49    48    1
    20    72    73    1
    21    51    48    1
    22    51    52    1
    23    73    74   ar
    24    69    70    2
    25    69    76   am
    26    48    47    1
    27    52    54   ar
    28    52    53   ar
    29    76    77    1
    30    83    81    1
    31    47    41   am
    32    45    43    1
    33    81    80    1
    34    41    42    2
    35    41    40    1
    36    77    80    1
    37    77    78    1
    38    80    82    1
    39    43    40    1
    40    43    44    1
    41    40    39    1
    42    78    79    2
    43    78    84   am
    44    46    44    1
    45    84    85    1
    46    39    34   am
    47    35    34    2
    48    34    33    1
    49    85    86    1
    50    37    36    1
    51    36    33    1
    52    36    38    1
    53    33    32    1
    54    86    87    2
    55     6     5    1
    56    15    13    1
    57    32    30   am
    58     4     3    2
    59     5     7    1
    60     5     2    1
    61    13    12    1
    62     3     2    1
    63    30    31    2
    64    30    29    1
    65     2     1    1
    66     8     9    1
    67    12     9    1
    68    12    14    1
    69    29    28    1
    70    95    93    1
    71    93    92    1
    72     9    10    1
    73    88    89    1
    74    28    26   am
    75    92    89    1
    76    92    94    1
    77    89    90    1
    78    10    11    2
    79    27    26    2
    80    26    25    1
    81    19    18    2
    82    90    91    2
    83    25    24    1
    84    18    24   am
    85    18    17    1
    86    20    17    1
    87    20    21    1
    88    17    16    1
    89    22    21    1
    90    21    23    1
