@<TRIPOS>MOLECULE
tmp/1f7rA00.pdb
 102 97 0 0 0
SMALL
GASTEIGER

@<TRIPOS>ATOM
      1  N         40.0890   18.1390   38.5080 N.3    35  VAL35      -0.1245
      2  CA        41.0090   19.0040   37.7880 C.3    35  VAL35       0.1561
      3  C         42.0820   19.5110   38.7370 C.2    35  VAL35       0.2260
      4  O         41.9540   20.5880   39.3050 O.2    35  VAL35      -0.2867
      5  CB        40.2700   20.1970   37.1640 C.3    35  VAL35       0.0252
      6  CG1       41.2540   21.0770   36.3860 C.3    35  VAL35       0.0019
      7  CG2       39.1550   19.6890   36.2560 C.3    35  VAL35       0.0019
      8  N         49.7350   18.6550   27.9490 N.3    52  ILE52      -0.1245
      9  CA        49.8180   18.0060   29.2470 C.3    52  ILE52       0.1561
     10  C         49.7580   16.5030   28.9680 C.2    52  ILE52       0.2260
     11  O         48.7730   15.9950   28.4290 O.2    52  ILE52      -0.2867
     12  CB        48.6480   18.3900   30.1610 C.3    52  ILE52       0.0252
     13  CG1       48.5060   19.9090   30.2190 C.3    52  ILE52       0.0019
     14  CG2       48.8650   17.8050   31.5430 C.3    52  ILE52       0.0019
     15  CD1       49.7540   20.6230   30.6510 C.3    52  ILE52       0.0001
     16  N         45.8390   11.0090   32.4770 N.3    65  VAL65      -0.1231
     17  CA        45.6140   12.4210   32.1890 C.3    65  VAL65       0.1692
     18  C         44.6170   12.5580   31.0440 C.2    65  VAL65       0.2592
     19  O         44.7700   11.9170   30.0100 O.2    65  VAL65      -0.2718
     20  CB        46.9380   13.1350   31.7950 C.3    65  VAL65       0.0266
     21  CG1       46.6560   14.5600   31.3450 C.3    65  VAL65       0.0020
     22  CG2       47.8920   13.1230   32.9710 C.3    65  VAL65       0.0020
     23  N         43.5890   13.3770   31.2460 N.am   66  LEU66      -0.1966
     24  CA        42.5850   13.6090   30.2160 C.3    66  LEU66       0.1728
     25  C         42.7700   15.0070   29.6320 C.2    66  LEU66       0.2617
     26  O         43.3790   15.8680   30.2590 O.2    66  LEU66      -0.2715
     27  CB        41.1720   13.4780   30.7850 C.3    66  LEU66       0.0311
     28  CG        40.7340   12.1380   31.3750 C.3    66  LEU66       0.0022
     29  CD1       39.2270   12.1540   31.5210 C.3    66  LEU66       0.0001
     30  CD2       41.1570   10.9770   30.4880 C.3    66  LEU66       0.0001
     31  N         42.2330   15.2320   28.4370 N.am   67  GLY67      -0.1940
     32  CA        42.3840   16.5250   27.7940 C.3    67  GLY67       0.2014
     33  C         43.8610   16.7700   27.5390 C.2    67  GLY67       0.2639
     34  O         44.5260   15.9720   26.8740 O.2    67  GLY67      -0.2714
     35  N         44.3840   17.8740   28.0550 N.am   68  GLY68      -0.1939
     36  CA        45.7950   18.1420   27.8830 C.3    68  GLY68       0.2014
     37  C         46.1990   19.2320   26.9200 C.2    68  GLY68       0.2639
     38  O         47.3780   19.3530   26.6110 O.2    68  GLY68      -0.2714
     39  N         45.2550   20.0340   26.4440 N.am   69  VAL69      -0.1963
     40  CA        45.6200   21.0950   25.5150 C.3    69  VAL69       0.1727
     41  C         45.6010   22.5000   26.1100 C.2    69  VAL69       0.2616
     42  O         44.5540   23.0420   26.4640 O.2    69  VAL69      -0.2715
     43  CB        44.7350   21.0710   24.2450 C.3    69  VAL69       0.0290
     44  CG1       45.0720   22.2580   23.3440 C.3    69  VAL69       0.0023
     45  CG2       44.9610   19.7810   23.4920 C.3    69  VAL69       0.0023
     46  N         46.7850   23.0820   26.2230 N.am   70  ILE70      -0.1963
     47  CA        46.9090   24.4300   26.7400 C.3    70  ILE70       0.1727
     48  C         47.0290   25.3220   25.5140 C.2    70  ILE70       0.2616
     49  O         47.9520   25.1720   24.7190 O.2    70  ILE70      -0.2715
     50  CB        48.1720   24.5780   27.6210 C.3    70  ILE70       0.0290
     51  CG1       48.1690   23.5070   28.7120 C.3    70  ILE70       0.0022
     52  CG2       48.2160   25.9630   28.2540 C.3    70  ILE70       0.0023
     53  CD1       46.8840   23.4410   29.5100 C.3    70  ILE70       0.0001
     54  N         46.0860   26.2350   25.3410 N.am   71  ASP71      -0.1971
     55  CA        46.1260   27.1190   24.1860 C.3    71  ASP71       0.1709
     56  C         47.1090   28.2610   24.3650 C.2    71  ASP71       0.2293
     57  O         47.2910   28.7780   25.4670 O.2    71  ASP71      -0.2864
     58  CB        44.7330   27.6760   23.8920 C.3    71  ASP71       0.1436
     59  CG        43.7830   26.6180   23.3770 C.2    71  ASP71       0.3671
     60  OD1       43.9910   26.1350   22.2460 O.co2  71  ASP71      -0.2456
     61  OD2       42.8330   26.2650   24.1070 O.co2  71  ASP71      -0.2456
     62  N         45.8430   31.0110   26.3200 N.3    74  TYR74      -0.1241
     63  CA        45.4300   30.8070   27.7020 C.3    74  TYR74       0.1605
     64  C         46.2330   31.6870   28.6490 C.2    74  TYR74       0.2264
     65  O         47.4470   31.8330   28.5080 O.2    74  TYR74      -0.2867
     66  CB        45.5890   29.3530   28.1290 C.3    74  TYR74       0.0534
     67  CG        44.8810   29.0460   29.4340 C.ar   74  TYR74      -0.0201
     68  CD1       45.5440   28.4020   30.4790 C.ar   74  TYR74      -0.0009
     69  CD2       43.5320   29.3650   29.6090 C.ar   74  TYR74      -0.0009
     70  CE1       44.8850   28.0780   31.6510 C.ar   74  TYR74       0.0417
     71  CE2       42.8660   29.0430   30.7800 C.ar   74  TYR74       0.0417
     72  CZ        43.5490   28.3980   31.7930 C.ar   74  TYR74       0.1957
     73  OH        42.8830   28.0450   32.9400 O.3    74  TYR74      -0.2866
     74  N         44.8970   29.5870   35.1190 N.3    77  GLU77      -0.1231
     75  CA        45.7280   28.6170   35.8280 C.3    77  GLU77       0.1699
     76  C         45.6810   27.2760   35.1220 C.2    77  GLU77       0.2592
     77  O         44.6270   26.8440   34.6710 O.2    77  GLU77      -0.2718
     78  CB        45.2620   28.4090   37.2800 C.3    77  GLU77       0.0402
     79  CG        46.1970   27.4510   38.0480 C.3    77  GLU77       0.1161
     80  CD        45.7140   27.0870   39.4440 C.2    77  GLU77       0.3649
     81  OE1       45.3090   27.9970   40.1960 O.co2  77  GLU77      -0.2457
     82  OE2       45.7550   25.8920   39.8020 O.co2  77  GLU77      -0.2457
     83  N         46.8250   26.6140   35.0410 N.am   78  ILE78      -0.1966
     84  CA        46.8880   25.3190   34.3910 C.3    78  ILE78       0.1727
     85  C         46.3820   24.2270   35.3120 C.2    78  ILE78       0.2616
     86  O         46.8380   24.0870   36.4400 O.2    78  ILE78      -0.2715
     87  CB        48.3240   24.9720   33.9720 C.3    78  ILE78       0.0290
     88  CG1       48.8420   26.0230   32.9890 C.3    78  ILE78       0.0022
     89  CG2       48.3570   23.5870   33.3420 C.3    78  ILE78       0.0023
     90  CD1       50.2640   25.7900   32.5470 C.3    78  ILE78       0.0001
     91  N         45.4180   23.4630   34.8210 N.am   79  GLY79      -0.1955
     92  CA        44.8780   22.3710   35.5990 C.3    79  GLY79       0.1869
     93  C         45.1640   21.0430   34.9240 C.2    79  GLY79       0.2309
     94  O         45.1410   20.9370   33.7020 O.2    79  GLY79      -0.2863
     95  N         43.8080   17.4150   34.3910 N.3    81  ILE81      -0.1245
     96  CA        42.5990   16.6130   34.5660 C.3    81  ILE81       0.1561
     97  C         43.0460   15.1800   34.7200 C.2    81  ILE81       0.2260
     98  O         43.5650   14.5770   33.7880 O.2    81  ILE81      -0.2867
     99  CB        41.6350   16.6990   33.3660 C.3    81  ILE81       0.0252
    100  CG1       41.5250   18.1380   32.8680 C.3    81  ILE81       0.0019
    101  CG2       40.2520   16.2420   33.7990 C.3    81  ILE81       0.0019
    102  CD1       40.6030   18.2910   31.6790 C.3    81  ILE81       0.0001
@<TRIPOS>BOND
     1    60    59   ar
     2    44    43    1
     3    59    58    1
     4    59    61   ar
     5    45    43    1
     6    58    55    1
     7    55    56    1
     8    55    54    1
     9    43    40    1
    10    56    57    2
    11    49    48    2
    12    54    48   am
    13    48    47    1
    14    40    41    1
    15    40    39    1
    16    41    46   am
    17    41    42    2
    18    46    47    1
    19    62    63    1
    20    39    37   am
    21    38    37    2
    22    47    50    1
    23    34    33    2
    24    37    36    1
    25    33    32    1
    26    33    35   am
    27    50    52    1
    28    50    51    1
    29    63    66    1
    30    63    64    1
    31    32    31    1
    32    36    35    1
    33     8     9    1
    34    66    67    1
    35    11    10    2
    36    31    25   am
    37    65    64    2
    38    51    53    1
    39    10     9    1
    40     9    12    1
    41    67    69   ar
    42    67    68   ar
    43    69    71   ar
    44    25    24    1
    45    25    26    2
    46    19    18    2
    47    12    13    1
    48    12    14    1
    49    24    27    1
    50    24    23    1
    51    13    15    1
    52    68    70   ar
    53    30    28    1
    54    71    72   ar
    55    27    28    1
    56    18    23   am
    57    18    17    1
    58    21    20    1
    59    28    29    1
    60    70    72   ar
    61   102   100    1
    62    72    73    1
    63    20    17    1
    64    20    22    1
    65    17    16    1
    66    90    88    1
    67   100    99    1
    68    88    87    1
    69    89    87    1
    70    99   101    1
    71    99    96    1
    72    94    93    2
    73    98    97    2
    74    87    84    1
    75    95    96    1
    76    84    83    1
    77    84    85    1
    78    96    97    1
    79    77    76    2
    80    91    85   am
    81    91    92    1
    82    93    92    1
    83    83    76   am
    84    74    75    1
    85    76    75    1
    86    85    86    2
    87    75    78    1
    88     7     5    1
    89     6     5    1
    90     5     2    1
    91    78    79    1
    92     2     1    1
    93     2     3    1
    94    79    80    1
    95     3     4    2
    96    80    82   ar
    97    80    81   ar
