@<TRIPOS>MOLECULE
tmp/1f7sA00.pdb
 130 126 0 0 0
SMALL
GASTEIGER

@<TRIPOS>ATOM
      1  N         22.3320   28.9570   21.3930 N.3    49  TYR49      -0.1241
      2  CA        22.7220   27.5610   21.5080 C.3    49  TYR49       0.1605
      3  C         22.0620   27.0130   22.7660 C.2    49  TYR49       0.2264
      4  O         21.5950   25.8780   22.7870 O.2    49  TYR49      -0.2867
      5  CB        24.2440   27.4400   21.6320 C.3    49  TYR49       0.0534
      6  CG        24.7060   26.0780   22.0950 C.ar   49  TYR49      -0.0201
      7  CD1       24.7970   25.0040   21.2060 C.ar   49  TYR49      -0.0009
      8  CD2       24.9970   25.8470   23.4370 C.ar   49  TYR49      -0.0009
      9  CE1       25.1640   23.7390   21.6490 C.ar   49  TYR49       0.0417
     10  CE2       25.3600   24.5870   23.8880 C.ar   49  TYR49       0.0417
     11  CZ        25.4380   23.5400   22.9910 C.ar   49  TYR49       0.1957
     12  OH        25.7580   22.2880   23.4500 O.3    49  TYR49      -0.2866
     13  N         18.4650   26.0210   22.2770 N.3    52  PHE52      -0.1227
     14  CA        18.3560   24.7980   21.4890 C.3    52  PHE52       0.1736
     15  C         18.7010   23.6100   22.3750 C.2    52  PHE52       0.2595
     16  O         17.9710   22.6270   22.4240 O.2    52  PHE52      -0.2718
     17  CB        19.3180   24.8340   20.2960 C.3    52  PHE52       0.0547
     18  CG        19.4200   23.5270   19.5650 C.ar   52  PHE52      -0.0202
     19  CD1       18.2890   22.9290   19.0220 C.ar   52  PHE52      -0.0042
     20  CD2       20.6470   22.8870   19.4250 C.ar   52  PHE52      -0.0042
     21  CE1       18.3750   21.7090   18.3500 C.ar   52  PHE52      -0.0003
     22  CE2       20.7430   21.6660   18.7520 C.ar   52  PHE52      -0.0003
     23  CZ        19.6020   21.0780   18.2160 C.ar   52  PHE52      -0.0000
     24  N         19.8320   23.7120   23.0650 N.am   53  ALA53      -0.1966
     25  CA        20.2850   22.6650   23.9660 C.3    53  ALA53       0.1728
     26  C         19.2100   22.3550   25.0080 C.2    53  ALA53       0.2616
     27  O         19.0200   21.2050   25.3870 O.2    53  ALA53      -0.2715
     28  CB        21.5790   23.0980   24.6560 C.3    53  ALA53       0.0334
     29  N         18.5090   23.3830   25.4710 N.am   54  ALA54      -0.1977
     30  CA        17.4560   23.1880   26.4590 C.3    54  ALA54       0.1597
     31  C         16.3490   22.2920   25.8960 C.2    54  ALA54       0.2287
     32  O         15.6280   21.6320   26.6450 O.2    54  ALA54      -0.2864
     33  CB        16.8740   24.5360   26.8720 C.3    54  ALA54       0.0319
     34  N         16.7920   19.6350   24.0730 N.3    56  LEU56      -0.1245
     35  CA        17.2510   18.2600   23.9370 C.3    56  LEU56       0.1561
     36  C         17.2800   17.6700   25.3470 C.2    56  LEU56       0.2260
     37  O         18.1280   18.0300   26.1620 O.2    56  LEU56      -0.2867
     38  CB        18.6540   18.2190   23.3180 C.3    56  LEU56       0.0270
     39  CG        18.7820   18.8270   21.9180 C.3    56  LEU56       0.0019
     40  CD1       20.2120   18.6780   21.4150 C.3    56  LEU56       0.0001
     41  CD2       17.8120   18.1340   20.9770 C.3    56  LEU56       0.0001
     42  N         17.9270   15.4730   28.5900 N.3    58  ALA58      -0.1245
     43  CA        19.1030   14.7670   29.0770 C.3    58  ALA58       0.1562
     44  C         18.8390   13.2720   29.2250 C.2    58  ALA58       0.2260
     45  O         19.7720   12.4730   29.2850 O.2    58  ALA58      -0.2867
     46  CB        19.5400   15.3540   30.4230 C.3    58  ALA58       0.0290
     47  N         19.2300   21.7760   12.5210 N.3    66  TYR66      -0.1241
     48  CA        19.7210   23.0590   12.9820 C.3    66  TYR66       0.1605
     49  C         20.3060   23.8110   11.7970 C.2    66  TYR66       0.2264
     50  O         21.1840   23.3010   11.0920 O.2    66  TYR66      -0.2867
     51  CB        20.7840   22.8550   14.0720 C.3    66  TYR66       0.0534
     52  CG        21.1140   24.1160   14.8400 C.ar   66  TYR66      -0.0201
     53  CD1       21.9180   25.1100   14.2820 C.ar   66  TYR66      -0.0009
     54  CD2       20.5760   24.3410   16.1070 C.ar   66  TYR66      -0.0009
     55  CE1       22.1750   26.3020   14.9670 C.ar   66  TYR66       0.0417
     56  CE2       20.8220   25.5230   16.7990 C.ar   66  TYR66       0.0417
     57  CZ        21.6210   26.5020   16.2260 C.ar   66  TYR66       0.1957
     58  OH        21.8610   27.6820   16.9070 O.3    66  TYR66      -0.2866
     59  N         22.6490   26.1040   10.8330 N.3    68  PHE68      -0.1241
     60  CA        23.8590   26.7280   11.3370 C.3    68  PHE68       0.1605
     61  C         24.4070   27.7900   10.3980 C.2    68  PHE68       0.2264
     62  O         25.1140   27.4770    9.4410 O.2    68  PHE68      -0.2867
     63  CB        24.9100   25.6370   11.5850 C.3    68  PHE68       0.0534
     64  CG        26.1370   26.1240   12.2980 C.ar   68  PHE68      -0.0203
     65  CD1       27.1730   26.7320   11.5970 C.ar   68  PHE68      -0.0042
     66  CD2       26.2490   25.9890   13.6780 C.ar   68  PHE68      -0.0042
     67  CE1       28.3050   27.1990   12.2590 C.ar   68  PHE68      -0.0003
     68  CE2       27.3760   26.4540   14.3510 C.ar   68  PHE68      -0.0003
     69  CZ        28.4050   27.0600   13.6390 C.ar   68  PHE68      -0.0000
     70  N         22.2360   21.3130    9.4540 N.3    82  PHE82      -0.1241
     71  CA        22.7490   20.2040   10.2560 C.3    82  PHE82       0.1605
     72  C         21.6230   19.2510   10.6520 C.2    82  PHE82       0.2264
     73  O         20.5650   19.6970   11.0960 O.2    82  PHE82      -0.2867
     74  CB        23.3490   20.7070   11.5790 C.3    82  PHE82       0.0534
     75  CG        24.6940   21.3760   11.4630 C.ar   82  PHE82      -0.0203
     76  CD1       25.2310   21.7350   10.2370 C.ar   82  PHE82      -0.0042
     77  CD2       25.4280   21.6490   12.6180 C.ar   82  PHE82      -0.0042
     78  CE1       26.4800   22.3540   10.1580 C.ar   82  PHE82      -0.0003
     79  CE2       26.6800   22.2720   12.5460 C.ar   82  PHE82      -0.0003
     80  CZ        27.2010   22.6210   11.3110 C.ar   82  PHE82      -0.0000
     81  N         20.8460   16.3640   13.2990 N.3    84  ILE84      -0.1245
     82  CA        21.4370   15.8830   14.5370 C.3    84  ILE84       0.1561
     83  C         20.6890   14.7210   15.1670 C.2    84  ILE84       0.2260
     84  O         19.4700   14.7870   15.3500 O.2    84  ILE84      -0.2867
     85  CB        21.4900   17.0180   15.5920 C.3    84  ILE84       0.0252
     86  CG1       22.2740   18.2070   15.0390 C.3    84  ILE84       0.0019
     87  CG2       22.1280   16.5120   16.8910 C.3    84  ILE84       0.0019
     88  CD1       22.2020   19.4410   15.9190 C.3    84  ILE84       0.0001
     89  N         20.4460   13.1580   18.4820 N.3    86  TRP86      -0.1241
     90  CA        20.7570   13.3630   19.9020 C.3    86  TRP86       0.1605
     91  C         20.5820   12.0210   20.6240 C.2    86  TRP86       0.2264
     92  O         19.5030   11.4250   20.6090 O.2    86  TRP86      -0.2867
     93  CB        19.8220   14.4440   20.4810 C.3    86  TRP86       0.0550
     94  CG        19.8200   14.5720   21.9800 C.ar   86  TRP86       0.0003
     95  CD1       18.7360   14.4460   22.8100 C.ar   86  TRP86       0.0946
     96  CD2       20.9390   14.8650   22.8270 C.ar   86  TRP86       0.0152
     97  NE1       19.1140   14.6430   24.1200 N.ar   86  TRP86      -0.2442
     98  CE2       20.4590   14.8990   24.1600 C.ar   86  TRP86       0.0810
     99  CE3       22.3010   15.1030   22.5920 C.ar   86  TRP86       0.0012
    100  CZ2       21.2950   15.1560   25.2510 C.ar   86  TRP86       0.0191
    101  CZ3       23.1320   15.3600   23.6800 C.ar   86  TRP86       0.0001
    102  CH2       22.6240   15.3830   24.9910 C.ar   86  TRP86       0.0015
    103  N         25.2880   14.8760   12.2410 N.3   117  LEU117     -0.1245
    104  CA        25.9620   14.7370   13.5190 C.3   117  LEU117      0.1561
    105  C         25.2330   13.7820   14.4470 C.2   117  LEU117      0.2260
    106  O         24.0130   13.6200   14.3520 O.2   117  LEU117     -0.2867
    107  CB        26.0250   16.0970   14.2220 C.3   117  LEU117      0.0270
    108  CG        26.6240   17.2880   13.4770 C.3   117  LEU117      0.0019
    109  CD1       26.4590   18.5450   14.3210 C.3   117  LEU117      0.0001
    110  CD2       28.1000   17.0180   13.1770 C.3   117  LEU117      0.0001
    111  N         25.1230   13.3580   18.5190 N.3   119  ALA119     -0.1231
    112  CA        25.5570   14.0520   19.7200 C.3   119  ALA119      0.1694
    113  C         25.2030   13.3810   21.0490 C.2   119  ALA119      0.2593
    114  O         24.1620   12.7360   21.1900 O.2   119  ALA119     -0.2718
    115  CB        25.0030   15.4680   19.7050 C.3   119  ALA119      0.0304
    116  N         26.0940   13.5430   22.0220 N.am  120  THR120     -0.1939
    117  CA        25.8840   13.0070   23.3590 C.3   120  THR120      0.2028
    118  C         26.5750   13.9270   24.3670 C.2   120  THR120      0.2642
    119  O         27.5080   14.6450   24.0150 O.2   120  THR120     -0.2714
    120  CB        26.4270   11.5660   23.4880 C.3   120  THR120      0.1808
    121  OG1       26.1400   11.0680   24.8040 O.3   120  THR120     -0.2208
    122  CG2       27.9240   11.5300   23.2430 C.3   120  THR120      0.0379
    123  N         26.1090   13.9110   25.6130 N.am  121  ASP121     -0.1971
    124  CA        26.6730   14.7650   26.6530 C.3   121  ASP121      0.1709
    125  C         27.4670   13.9610   27.6810 C.2   121  ASP121      0.2293
    126  O         26.8880   13.2790   28.5270 O.2   121  ASP121     -0.2864
    127  CB        25.5470   15.5240   27.3610 C.3   121  ASP121      0.1436
    128  CG        26.0620   16.5550   28.3440 C.2   121  ASP121      0.3671
    129  OD1       27.1230   16.3230   28.9560 O.co2 121  ASP121     -0.2456
    130  OD2       25.3940   17.5970   28.5140 O.co2 121  ASP121     -0.2456
@<TRIPOS>BOND
     1    62    61    2
     2    70    71    1
     3    78    76   ar
     4    78    80   ar
     5    76    75   ar
     6    71    72    1
     7    71    74    1
     8    61    60    1
     9    72    73    2
    10    59    60    1
    11    50    49    2
    12    80    79   ar
    13    60    63    1
    14    75    74    1
    15    75    77   ar
    16    63    64    1
    17    65    67   ar
    18    65    64   ar
    19    49    48    1
    20   103   104    1
    21    67    69   ar
    22    64    66   ar
    23    47    48    1
    24    79    77   ar
    25    48    51    1
    26   110   108    1
    27    81    82    1
    28   108   107    1
    29   108   109    1
    30   104   107    1
    31   104   105    1
    32    69    68   ar
    33    66    68   ar
    34    51    52    1
    35    53    52   ar
    36    53    55   ar
    37   106   105    2
    38    82    83    1
    39    82    85    1
    40    52    54   ar
    41    55    57   ar
    42    86    85    1
    43    86    88    1
    44    83    84    2
    45    85    87    1
    46    54    56   ar
    47    57    56   ar
    48    57    58    1
    49    23    21   ar
    50    23    22   ar
    51    21    19   ar
    52    89    90    1
    53   111   112    1
    54    22    20   ar
    55    19    18   ar
    56    20    18   ar
    57    18    17    1
    58   115   112    1
    59   112   113    1
    60    90    93    1
    61    90    91    1
    62    17    14    1
    63    93    94    1
    64    92    91    2
    65    41    39    1
    66   113   114    2
    67   113   116   am
    68     7     9   ar
    69     7     6   ar
    70     1     2    1
    71    40    39    1
    72    14    13    1
    73    14    15    1
    74     2     5    1
    75     2     3    1
    76     5     6    1
    77     9    11   ar
    78    39    38    1
    79    94    95   ar
    80    94    96   ar
    81   116   117    1
    82     6     8   ar
    83    15    16    2
    84    15    24   am
    85    99    96   ar
    86    99   101   ar
    87     3     4    2
    88    95    97   ar
    89    96    98   ar
    90    11    12    1
    91    11    10   ar
    92    24    25    1
    93   122   120    1
    94    38    35    1
    95   117   120    1
    96   117   118    1
    97     8    10   ar
    98   120   121    1
    99   101   102   ar
   100    35    34    1
   101    35    36    1
   102    25    28    1
   103    25    26    1
   104   119   118    2
   105    97    98   ar
   106    98   100   ar
   107   118   123   am
   108   102   100   ar
   109    26    27    2
   110    26    29   am
   111    36    37    2
   112    29    30    1
   113   123   124    1
   114    31    30    1
   115    31    32    2
   116    30    33    1
   117   124   127    1
   118   124   125    1
   119   127   128    1
   120   125   126    2
   121   128   130   ar
   122   128   129   ar
   123    42    43    1
   124    43    44    1
   125    43    46    1
   126    44    45    2
