@<TRIPOS>MOLECULE
tmp/1f7uB00.pdb
 148 142 0 0 0
SMALL
GASTEIGER

@<TRIPOS>ATOM
      1  N         28.6150   19.9310    4.6240 N.3   147  GLU147     -0.1245
      2  CA        28.3870   21.1590    3.8680 C.3   147  GLU147      0.1567
      3  C         28.6060   22.3610    4.7890 C.2   147  GLU147      0.2260
      4  O         27.9020   22.5170    5.7930 O.2   147  GLU147     -0.2867
      5  CB        26.9530   21.1820    3.3290 C.3   147  GLU147      0.0388
      6  CG        26.6750   22.3440    2.3900 C.3   147  GLU147      0.1160
      7  CD        25.2680   22.8870    2.5310 C.2   147  GLU147      0.3649
      8  OE1       24.3040   22.1850    2.1620 O.co2 147  GLU147     -0.2457
      9  OE2       25.1290   24.0260    3.0190 O.co2 147  GLU147     -0.2457
     10  N         30.1500   26.7770    5.1820 N.3   149  SER149     -0.1202
     11  CA        30.4400   28.1090    4.6430 C.3   149  SER149      0.2020
     12  C         29.2560   28.4990    3.7600 C.2   149  SER149      0.2619
     13  O         28.4130   29.3020    4.1610 O.2   149  SER149     -0.2717
     14  CB        31.7360   28.1230    3.8290 C.3   149  SER149      0.2103
     15  OG        32.1140   29.4580    3.5360 O.3   149  SER149     -0.2182
     16  N         29.1990   27.9220    2.5610 N.am  150  SER150     -0.1938
     17  CA        28.0910   28.1470    1.6320 C.3   150  SER150      0.2040
     18  C         27.5690   29.5780    1.5770 C.2   150  SER150      0.2485
     19  O         26.3980   29.8310    1.8580 O.2   150  SER150     -0.2729
     20  CB        26.9410   27.2120    2.0010 C.3   150  SER150      0.2129
     21  OG        27.3680   25.8580    1.9930 O.3   150  SER150     -0.2179
     22  N         28.4220   30.5330    1.1970 N.am  151  PRO151     -0.2715
     23  CA        27.9760   31.9230    1.1290 C.3   151  PRO151      0.1536
     24  C         27.1620   32.1910   -0.1210 C.2   151  PRO151      0.2598
     25  O         27.1030   31.3590   -1.0240 O.2   151  PRO151     -0.2715
     26  CB        29.2850   32.6900    1.0970 C.3   151  PRO151      0.0310
     27  CG        30.1310   31.8010    0.2350 C.3   151  PRO151      0.0237
     28  CD        29.8330   30.4140    0.7810 C.3   151  PRO151      0.0939
     29  N         26.5260   33.3540   -0.1550 N.am  152  ASN152     -0.1973
     30  CA        25.7750   33.7730   -1.3240 C.3   152  ASN152      0.1688
     31  C         26.8500   34.4920   -2.1330 C.2   152  ASN152      0.2292
     32  O         27.4830   35.4220   -1.6370 O.2   152  ASN152     -0.2864
     33  CB        24.6590   34.7440   -0.9400 C.3   152  ASN152      0.1181
     34  CG        23.6090   34.1040   -0.0560 C.2   152  ASN152      0.2629
     35  OD1       23.2540   32.9390   -0.2370 O.2   152  ASN152     -0.2716
     36  ND2       23.0900   34.8710    0.8960 N.am  152  ASN152     -0.0877
     37  N         30.8860   35.2160    8.4020 N.3   161  HIS161     -0.1241
     38  CA        31.1090   34.0640    7.5240 C.3   161  HIS161      0.1621
     39  C         32.2070   33.1320    8.0150 C.2   161  HIS161      0.2264
     40  O         32.3120   31.9880    7.5720 O.2   161  HIS161     -0.2867
     41  CB        31.4440   34.5250    6.1010 C.3   161  HIS161      0.0745
     42  CG        30.2640   35.0390    5.3390 C.ar  161  HIS161      0.0817
     43  ND1       29.7830   36.3230    5.4840 N.ar  161  HIS161     -0.2268
     44  CD2       29.4490   34.4310    4.4450 C.ar  161  HIS161      0.1154
     45  CE1       28.7230   36.4830    4.7110 C.ar  161  HIS161      0.1986
     46  NE2       28.4990   35.3500    4.0700 N.ar  161  HIS161     -0.2212
     47  N         27.8990   24.7330   -0.5750 N.3   187  TYR187     -0.1241
     48  CA        26.5980   24.9450   -1.2190 C.3   187  TYR187      0.1605
     49  C         26.3500   26.4300   -1.4810 C.2   187  TYR187      0.2264
     50  O         25.6120   27.0960   -0.7510 O.2   187  TYR187     -0.2867
     51  CB        25.4960   24.3720   -0.3190 C.3   187  TYR187      0.0534
     52  CG        24.1060   24.3240   -0.9160 C.ar  187  TYR187     -0.0201
     53  CD1       23.8460   23.6220   -2.0990 C.ar  187  TYR187     -0.0009
     54  CD2       23.0360   24.9450   -0.2710 C.ar  187  TYR187     -0.0009
     55  CE1       22.5460   23.5400   -2.6200 C.ar  187  TYR187      0.0417
     56  CE2       21.7440   24.8680   -0.7780 C.ar  187  TYR187      0.0417
     57  CZ        21.5050   24.1660   -1.9510 C.ar  187  TYR187      0.1957
     58  OH        20.2200   24.1030   -2.4390 O.3   187  TYR187     -0.2866
     59  N         25.1410   30.0430   -2.6700 N.3   189  GLY189     -0.1225
     60  CA        23.8210   30.6110   -2.8600 C.3   189  GLY189      0.1811
     61  C         23.9380   31.3560   -4.1780 C.2   189  GLY189      0.2280
     62  O         24.1440   32.5700   -4.1970 O.2   189  GLY189     -0.2866
     63  N         22.7360   26.1370   -5.2520 N.3   293  GLU293     -0.1245
     64  CA        21.2950   26.0050   -5.4080 C.3   293  GLU293      0.1567
     65  C         20.9290   25.8620   -6.8800 C.2   293  GLU293      0.2260
     66  O         19.8240   25.4440   -7.2210 O.2   293  GLU293     -0.2867
     67  CB        20.5980   27.2210   -4.8070 C.3   293  GLU293      0.0388
     68  CG        20.7800   27.3250   -3.3020 C.3   293  GLU293      0.1160
     69  CD        20.1280   28.5550   -2.7180 C.2   293  GLU293      0.3649
     70  OE1       18.9000   28.7180   -2.8850 O.co2 293  GLU293     -0.2457
     71  OE2       20.8460   29.3570   -2.0890 O.co2 293  GLU293     -0.2457
     72  N         14.0760   28.7480   -1.5110 N.3   346  TYR346     -0.1241
     73  CA        15.2450   28.2650   -0.7910 C.3   346  TYR346      0.1605
     74  C         14.9870   26.8540   -0.2560 C.2   346  TYR346      0.2264
     75  O         15.7750   25.9380   -0.4830 O.2   346  TYR346     -0.2867
     76  CB        15.5480   29.2400    0.3570 C.3   346  TYR346      0.0534
     77  CG        16.8000   28.9660    1.1580 C.ar  346  TYR346     -0.0201
     78  CD1       18.0240   28.7350    0.5300 C.ar  346  TYR346     -0.0009
     79  CD2       16.7700   28.9930    2.5540 C.ar  346  TYR346     -0.0009
     80  CE1       19.1930   28.5410    1.2770 C.ar  346  TYR346      0.0417
     81  CE2       17.9290   28.8000    3.3090 C.ar  346  TYR346      0.0417
     82  CZ        19.1340   28.5760    2.6650 C.ar  346  TYR346      0.1957
     83  OH        20.2770   28.3880    3.4090 O.3   346  TYR346     -0.2866
     84  N         16.5350   23.0160   -1.2920 N.3   350  ASP350     -0.1239
     85  CA        17.2940   22.2190   -0.3390 C.3   350  ASP350      0.1674
     86  C         16.8200   20.7690   -0.3900 C.2   350  ASP350      0.2266
     87  O         17.6270   19.8430   -0.3350 O.2   350  ASP350     -0.2867
     88  CB        17.1460   22.7780    1.0850 C.3   350  ASP350      0.1410
     89  CG        18.4090   23.4940    1.5690 C.2   350  ASP350      0.3668
     90  OD1       19.5070   22.8950    1.4890 O.co2 350  ASP350     -0.2456
     91  OD2       18.3060   24.6500    2.0330 O.co2 350  ASP350     -0.2456
     92  N         22.3930   14.6760   -3.7640 N.3   357  ARG357     -0.1245
     93  CA        23.5700   14.2660   -3.0140 C.3   357  ARG357      0.1563
     94  C         23.5430   12.7880   -2.6630 C.2   357  ARG357      0.2260
     95  O         24.5560   12.1020   -2.7830 O.2   357  ARG357     -0.2867
     96  CB        23.6930   15.1050   -1.7420 C.3   357  ARG357      0.0307
     97  CG        23.8630   16.5800   -2.0200 C.3   357  ARG357      0.0489
     98  CD        23.8610   17.3890   -0.7440 C.3   357  ARG357      0.2205
     99  NE        23.8730   18.8190   -1.0280 N.pl3 357  ARG357     -0.0865
    100  CZ        23.9840   19.7640   -0.1020 C.cat 357  ARG357      0.5346
    101  NH1       24.0950   19.4340    1.1830 N.pl3 357  ARG357      0.1354
    102  NH2       23.9830   21.0390   -0.4630 N.pl3 357  ARG357      0.1354
    103  N         25.0230   19.4680    7.8720 N.3   368  TYR368     -0.1227
    104  CA        24.8690   20.8290    7.3690 C.3   368  TYR368      0.1736
    105  C         25.3300   21.7700    8.4770 C.2   368  TYR368      0.2595
    106  O         24.7580   21.7690    9.5670 O.2   368  TYR368     -0.2718
    107  CB        23.4040   21.1630    7.0650 C.3   368  TYR368      0.0548
    108  CG        22.7710   20.4000    5.9280 C.ar  368  TYR368     -0.0200
    109  CD1       22.3870   19.0690    6.0830 C.ar  368  TYR368     -0.0009
    110  CD2       22.5070   21.0270    4.7050 C.ar  368  TYR368     -0.0009
    111  CE1       21.7500   18.3840    5.0600 C.ar  368  TYR368      0.0417
    112  CE2       21.8680   20.3450    3.6700 C.ar  368  TYR368      0.0417
    113  CZ        21.4920   19.0260    3.8570 C.ar  368  TYR368      0.1957
    114  OH        20.8450   18.3460    2.8540 O.3   368  TYR368     -0.2866
    115  N         26.3620   22.5600    8.2100 N.am  369  VAL369     -0.1966
    116  CA        26.8470   23.5160    9.2030 C.3   369  VAL369      0.1727
    117  C         26.1940   24.8460    8.8430 C.2   369  VAL369      0.2616
    118  O         26.6590   25.5710    7.9570 O.2   369  VAL369     -0.2715
    119  CB        28.3810   23.6420    9.1580 C.3   369  VAL369      0.0290
    120  CG1       28.8610   24.6340   10.2200 C.3   369  VAL369      0.0023
    121  CG2       29.0080   22.2730    9.3870 C.3   369  VAL369      0.0023
    122  N         25.1050   25.1520    9.5370 N.am  370  ILE370     -0.1977
    123  CA        24.3430   26.3580    9.2690 C.3   370  ILE370      0.1596
    124  C         23.9960   27.0960   10.5520 C.2   370  ILE370      0.2287
    125  O         23.7820   26.4780   11.5910 O.2   370  ILE370     -0.2864
    126  CB        23.0340   25.9990    8.5340 C.3   370  ILE370      0.0276
    127  CG1       23.3630   25.2430    7.2440 C.3   370  ILE370      0.0022
    128  CG2       22.2260   27.2620    8.2550 C.3   370  ILE370      0.0022
    129  CD1       22.1480   24.6940    6.5200 C.3   370  ILE370      0.0001
    130  N         18.9360   29.8860   11.1560 N.3   374  GLN374     -0.1245
    131  CA        18.2090   29.0700   10.1870 C.3   374  GLN374      0.1566
    132  C         17.7480   27.7280   10.7750 C.2   374  GLN374      0.2260
    133  O         17.5490   26.7590   10.0370 O.2   374  GLN374     -0.2867
    134  CB        19.0740   28.8280    8.9350 C.3   374  GLN374      0.0367
    135  CG        19.2460   30.0720    8.0590 C.3   374  GLN374      0.0905
    136  CD        20.0150   29.8140    6.7620 C.2   374  GLN374      0.2608
    137  OE1       19.8140   28.7970    6.0900 O.2   374  GLN374     -0.2717
    138  NE2       20.8860   30.7520    6.3960 N.am  374  GLN374     -0.0878
    139  N         14.2720   26.6360    9.3180 N.3   377  HIS377     -0.1241
    140  CA        14.4460   26.2190    7.9310 C.3   377  HIS377      0.1621
    141  C         14.9300   24.7750    7.8880 C.2   377  HIS377      0.2264
    142  O         14.2990   23.9100    7.2760 O.2   377  HIS377     -0.2867
    143  CB        15.4710   27.1190    7.2330 C.3   377  HIS377      0.0745
    144  CG        15.8010   26.6890    5.8360 C.ar  377  HIS377      0.0817
    145  ND1       14.9040   26.7900    4.7940 N.ar  377  HIS377     -0.2268
    146  CD2       16.9230   26.1360    5.3150 C.ar  377  HIS377      0.1154
    147  CE1       15.4580   26.3180    3.6910 C.ar  377  HIS377      0.1986
    148  NE2       16.6830   25.9150    3.9790 N.ar  377  HIS377     -0.2212
@<TRIPOS>BOND
     1    66    65    2
     2    65    64    1
     3    64    63    1
     4    64    67    1
     5    67    68    1
     6    62    61    2
     7    61    60    1
     8    92    93    1
     9    68    69    1
    10    93    94    1
    11    93    96    1
    12    70    69   ar
    13    60    59    1
    14    95    94    2
    15    69    71   ar
    16    55    53   ar
    17    55    57   ar
    18    58    57    1
    19    31    32    2
    20    31    30    1
    21    53    52   ar
    22    97    96    1
    23    97    98    1
    24    57    56   ar
    25    72    73    1
    26    49    48    1
    27    49    50    2
    28    30    33    1
    29    30    29    1
    30    84    85    1
    31    48    47    1
    32    48    51    1
    33    99    98    1
    34    99   100    2
    35    25    24    2
    36    33    34    1
    37    52    51    1
    38    52    54   ar
    39    73    74    1
    40    73    76    1
    41    56    54   ar
    42    75    74    2
    43   102   100    1
    44    86    85    1
    45    86    87    2
    46    85    88    1
    47    35    34    2
    48    29    24   am
    49    24    23    1
    50   100   101    1
    51    34    36   am
    52    27    28    1
    53    27    26    1
    54    76    77    1
    55    78    77   ar
    56    78    80   ar
    57    28    22    1
    58    88    89    1
    59    26    23    1
    60    23    22    1
    61    77    79   ar
    62    22    18   am
    63    80    82   ar
    64    90    89   ar
    65    89    91   ar
    66    18    17    1
    67    18    19    2
    68    17    20    1
    69    17    16    1
    70    21    20    1
    71     8     7   ar
    72     6     7    1
    73     6     5    1
    74     7     9   ar
    75    79    81   ar
    76    16    12   am
    77    82    81   ar
    78    82    83    1
    79   114   113    1
    80     5     2    1
    81    15    14    1
    82   112   113   ar
    83   112   110   ar
    84   147   148   ar
    85   147   145   ar
    86    12    13    2
    87    12    11    1
    88    14    11    1
    89   113   111   ar
    90     2     1    1
    91     2     3    1
    92   148   146   ar
    93    46    44   ar
    94    46    45   ar
    95    44    42   ar
    96    11    10    1
    97   110   108   ar
    98    45    43   ar
    99     3     4    2
   100   145   144   ar
   101   111   109   ar
   102   146   144   ar
   103    42    43   ar
   104    42    41    1
   105   144   143    1
   106   108   109   ar
   107   108   107    1
   108   137   136    2
   109    41    38    1
   110   138   136   am
   111   129   127    1
   112   136   135    1
   113   107   104    1
   114   143   140    1
   115   127   126    1
   116   142   141    2
   117   104   103    1
   118   104   105    1
   119    38    39    1
   120    38    37    1
   121    40    39    2
   122   141   140    1
   123   140   139    1
   124   118   117    2
   125   135   134    1
   126   115   105   am
   127   115   116    1
   128   128   126    1
   129   105   106    2
   130   126   123    1
   131   117   116    1
   132   117   122   am
   133   134   131    1
   134   119   116    1
   135   119   121    1
   136   119   120    1
   137   123   122    1
   138   123   124    1
   139   133   132    2
   140   131   132    1
   141   131   130    1
   142   124   125    2
