@<TRIPOS>MOLECULE
tmp/1f86B00.pdb
 80 71 0 0 0
SMALL
GASTEIGER

@<TRIPOS>ATOM
      1  N         23.3840   31.7070   64.2610 N.3     4  MET4       -0.1245
      2  CA        22.1940   32.5280   64.3790 C.3     4  MET4        0.1570
      3  C         21.6790   32.8290   62.9630 C.2     4  MET4        0.2261
      4  O         22.4950   33.0310   62.0670 O.2     4  MET4       -0.2867
      5  CB        22.4780   33.8610   65.0630 C.3     4  MET4        0.0387
      6  CG        21.2000   34.5890   65.5120 C.3     4  MET4        0.0595
      7  SD        20.5970   35.8080   64.3620 S.3     4  MET4       -0.1393
      8  CE        21.5170   37.2750   64.7650 C.3     4  MET4        0.0692
      9  N         18.9600   35.3960   60.8190 N.3     6  LYS6       -0.1245
     10  CA        18.1820   36.6100   60.8680 C.3     6  LYS6        0.1561
     11  C         17.4960   36.8190   59.5220 C.2     6  LYS6        0.2260
     12  O         18.1830   36.7600   58.5310 O.2     6  LYS6       -0.2867
     13  CB        19.0450   37.8380   61.1700 C.3     6  LYS6        0.0271
     14  CG        18.1740   39.0710   61.3740 C.3     6  LYS6        0.0035
     15  CD        18.8070   40.0720   62.3020 C.3     6  LYS6        0.0206
     16  CE        17.9720   41.3440   62.3540 C.3     6  LYS6        0.1093
     17  NZ        16.8040   41.2940   63.2790 N.3     6  LYS6       -0.1314
     18  N         14.7590   39.2810   57.2750 N.3     8  LEU8       -0.1245
     19  CA        14.0960   40.5720   57.1620 C.3     8  LEU8        0.1561
     20  C         13.2130   40.6170   55.9360 C.2     8  LEU8        0.2260
     21  O         13.4500   39.9180   54.9480 O.2     8  LEU8       -0.2867
     22  CB        15.1550   41.6790   57.0290 C.3     8  LEU8        0.0270
     23  CG        16.0470   42.0380   58.2060 C.3     8  LEU8        0.0019
     24  CD1       17.2460   41.1100   58.3420 C.3     8  LEU8        0.0001
     25  CD2       16.6130   43.4430   58.0620 C.3     8  LEU8        0.0001
     26  N         14.6420   36.6990   64.3110 N.3    45  GLU45      -0.1245
     27  CA        15.8760   35.9780   64.6500 C.3    45  GLU45       0.1567
     28  C         15.5530   34.5700   65.1000 C.2    45  GLU45       0.2260
     29  O         14.4850   34.3000   65.6630 O.2    45  GLU45      -0.2867
     30  CB        16.7300   36.6920   65.7100 C.3    45  GLU45       0.0388
     31  CG        17.1770   38.0510   65.1370 C.3    45  GLU45       0.1160
     32  CD        17.9680   38.9150   66.0820 C.2    45  GLU45       0.3649
     33  OE1       18.3160   38.4490   67.1620 O.co2  45  GLU45      -0.2457
     34  OE2       18.2830   40.0840   65.7750 O.co2  45  GLU45      -0.2457
     35  N         26.5930   34.3600   61.7800 N.3    97  THR97      -0.1218
     36  CA        25.2570   34.8900   61.6030 C.3    97  THR97       0.1862
     37  C         24.9410   34.8240   60.1260 C.2    97  THR97       0.2287
     38  O         25.6800   35.3680   59.2630 O.2    97  THR97      -0.2866
     39  CB        25.1680   36.3530   62.0770 C.3    97  THR97       0.1770
     40  OG1       25.5030   36.3800   63.4720 O.3    97  THR97      -0.2211
     41  CG2       23.7670   36.8860   61.9100 C.3    97  THR97       0.0375
     42  N         22.2200   35.9670   57.5050 N.3    99  ALA99      -0.1231
     43  CA        21.1350   36.9090   57.3530 C.3    99  ALA99       0.1694
     44  C         20.5500   36.7860   55.9440 C.2    99  ALA99       0.2592
     45  O         21.2690   36.5870   54.9860 O.2    99  ALA99      -0.2718
     46  CB        21.6360   38.3130   57.5800 C.3    99  ALA99       0.0304
     47  N         19.2550   36.9580   55.8450 N.am  100  ALA100     -0.1966
     48  CA        18.5330   36.9250   54.5690 C.3   100  ALA100      0.1728
     49  C         17.5380   38.0710   54.5290 C.2   100  ALA100      0.2616
     50  O         16.7800   38.3080   55.4560 O.2   100  ALA100     -0.2715
     51  CB        17.8150   35.6270   54.3400 C.3   100  ALA100      0.0334
     52  N         17.5450   38.8030   53.4040 N.am  101  LEU101     -0.1977
     53  CA        16.6850   39.9290   53.1510 C.3   101  LEU101      0.1596
     54  C         15.7410   39.5200   52.0190 C.2   101  LEU101      0.2287
     55  O         16.2130   39.2580   50.9040 O.2   101  LEU101     -0.2864
     56  CB        17.4880   41.1540   52.7480 C.3   101  LEU101      0.0297
     57  CG        16.6400   42.4100   52.4110 C.3   101  LEU101      0.0022
     58  CD1       15.7740   42.8110   53.6040 C.3   101  LEU101      0.0001
     59  CD2       17.5970   43.5360   52.0050 C.3   101  LEU101      0.0001
     60  N         18.6800   38.5430   49.1660 N.3   108  SER108     -0.1217
     61  CA        20.0780   38.8050   49.4410 C.3   108  SER108      0.1889
     62  C         20.4350   37.9740   50.6990 C.2   108  SER108      0.2288
     63  O         19.6180   37.9400   51.6420 O.2   108  SER108     -0.2866
     64  CB        20.3740   40.2730   49.6700 C.3   108  SER108      0.2089
     65  OG        21.7000   40.5550   50.1000 O.3   108  SER108     -0.2183
     66  N         23.7880   37.2100   53.4800 N.3   110  MET110     -0.1245
     67  CA        25.1270   37.5980   53.9340 C.3   110  MET110      0.1570
     68  C         25.5300   36.6890   55.0720 C.2   110  MET110      0.2261
     69  O         24.6490   36.1920   55.8270 O.2   110  MET110     -0.2867
     70  CB        25.1020   39.0910   54.2670 C.3   110  MET110      0.0387
     71  CG        25.1920   39.2470   55.7840 C.3   110  MET110      0.0595
     72  SD        26.8760   39.7730   56.1470 S.3   110  MET110     -0.1393
     73  CE        27.6220   39.8860   54.5370 C.3   110  MET110      0.0692
     74  N         28.0340   36.8490   58.4490 N.3   112  VAL112     -0.1245
     75  CA        28.9460   37.5900   59.3150 C.3   112  VAL112      0.1561
     76  C         29.5970   36.5190   60.1860 C.2   112  VAL112      0.2260
     77  O         28.9130   35.7470   60.8590 O.2   112  VAL112     -0.2867
     78  CB        28.2340   38.6550   60.1770 C.3   112  VAL112      0.0252
     79  CG1       29.2890   39.4730   60.9210 C.3   112  VAL112      0.0019
     80  CG2       27.3320   39.6000   59.3830 C.3   112  VAL112      0.0019
@<TRIPOS>BOND
     1    60    61    1
     2    61    64    1
     3    61    62    1
     4    64    65    1
     5    62    63    2
     6    55    54    2
     7    59    57    1
     8    54    53    1
     9    57    56    1
    10    57    58    1
    11    56    53    1
    12    53    52    1
    13    52    49   am
    14    66    67    1
    15    67    70    1
    16    67    68    1
    17    70    71    1
    18    51    48    1
    19    49    48    1
    20    49    50    2
    21    73    72    1
    22    48    47    1
    23    21    20    2
    24    45    44    2
    25    68    69    2
    26    71    72    1
    27    47    44   am
    28    20    19    1
    29    44    43    1
    30    22    19    1
    31    22    23    1
    32    19    18    1
    33    43    42    1
    34    43    46    1
    35    25    23    1
    36    23    24    1
    37    74    75    1
    38    12    11    2
    39    38    37    2
    40    75    78    1
    41    75    76    1
    42    80    78    1
    43    11    10    1
    44    37    36    1
    45    78    79    1
    46    76    77    2
    47     9    10    1
    48    10    13    1
    49    13    14    1
    50    14    15    1
    51    36    35    1
    52    36    39    1
    53    41    39    1
    54     4     3    2
    55    39    40    1
    56    15    16    1
    57    16    17    1
    58     3     2    1
    59     1     2    1
    60    26    27    1
    61     7     8    1
    62     7     6    1
    63     2     5    1
    64    27    28    1
    65    27    30    1
    66     5     6    1
    67    28    29    2
    68    31    30    1
    69    31    32    1
    70    34    32   ar
    71    32    33   ar
