@<TRIPOS>MOLECULE
tmp/1f88B02.pdb
 192 186 0 0 0
SMALL
GASTEIGER

@<TRIPOS>ATOM
      1  N         45.6850   18.0730   28.4140 N.3   113  GLU113     -0.1231
      2  CA        45.5970   16.9950   27.4300 C.3   113  GLU113      0.1699
      3  C         44.2320   16.2940   27.4180 C.2   113  GLU113      0.2592
      4  O         43.6670   16.0480   26.3470 O.2   113  GLU113     -0.2718
      5  CB        46.7010   15.9770   27.7170 C.3   113  GLU113      0.0402
      6  CG        47.3700   15.3850   26.4960 C.3   113  GLU113      0.1161
      7  CD        46.4380   14.5590   25.6420 C.2   113  GLU113      0.3649
      8  OE1       46.3950   14.7940   24.4180 O.co2 113  GLU113     -0.2457
      9  OE2       45.7480   13.6720   26.1910 O.co2 113  GLU113     -0.2457
     10  N         43.7040   15.9990   28.6070 N.am  114  GLY114     -0.1957
     11  CA        42.4230   15.3120   28.7340 C.3   114  GLY114      0.1869
     12  C         41.1730   16.1650   28.6180 C.2   114  GLY114      0.2309
     13  O         40.2080   15.7600   27.9620 O.2   114  GLY114     -0.2863
     14  N         40.3180   17.1550   25.0350 N.3   117  ALA117     -0.1231
     15  CA        40.0390   15.9780   24.2240 C.3   117  ALA117      0.1694
     16  C         38.6490   15.4680   24.5530 C.2   117  ALA117      0.2592
     17  O         37.9130   15.0150   23.6760 O.2   117  ALA117     -0.2718
     18  CB        41.0580   14.9130   24.5030 C.3   117  ALA117      0.0304
     19  N         38.3120   15.5160   25.8360 N.am  118  THR118     -0.1953
     20  CA        37.0100   15.0830   26.3050 C.3   118  THR118      0.1897
     21  C         35.9880   16.1530   25.9420 C.2   118  THR118      0.2313
     22  O         34.8580   15.8430   25.5460 O.2   118  THR118     -0.2863
     23  CB        37.0160   14.9010   27.8080 C.3   118  THR118      0.1794
     24  OG1       38.1210   14.0640   28.1650 O.3   118  THR118     -0.2208
     25  CG2       35.7040   14.2610   28.2710 C.3   118  THR118      0.0378
     26  N         35.5030   15.6380   22.0670 N.3   121  GLY121     -0.1210
     27  CA        34.5830   14.5740   21.7060 C.3   121  GLY121      0.1956
     28  C         33.1680   14.7700   22.2200 C.2   121  GLY121      0.2611
     29  O         32.2040   14.4190   21.5380 O.2   121  GLY121     -0.2717
     30  N         33.0410   15.3120   23.4280 N.am  122  GLU122     -0.1979
     31  CA        31.7290   15.5460   24.0070 C.3   122  GLU122      0.1602
     32  C         30.9440   16.6380   23.2820 C.2   122  GLU122      0.2287
     33  O         29.7250   16.5420   23.1660 O.2   122  GLU122     -0.2864
     34  CB        31.8300   15.8210   25.5050 C.3   122  GLU122      0.0415
     35  CG        31.9930   14.5590   26.3290 C.3   122  GLU122      0.1163
     36  CD        30.8450   13.5950   26.1240 C.2   122  GLU122      0.3649
     37  OE1       29.7090   13.9300   26.5000 O.co2 122  GLU122     -0.2457
     38  OE2       31.0690   12.5040   25.5800 O.co2 122  GLU122     -0.2457
     39  N         29.7790   14.7440   20.2590 N.3   125  LEU125     -0.1245
     40  CA        28.7320   13.8140   20.6700 C.3   125  LEU125      0.1561
     41  C         27.4490   14.6250   20.9210 C.2   125  LEU125      0.2260
     42  O         26.3650   14.2230   20.4990 O.2   125  LEU125     -0.2867
     43  CB        29.1970   13.0710   21.9400 C.3   125  LEU125      0.0270
     44  CG        28.3800   12.0930   22.8020 C.3   125  LEU125      0.0019
     45  CD1       27.5900   12.8630   23.8440 C.3   125  LEU125      0.0001
     46  CD2       27.4890   11.1780   21.9660 C.3   125  LEU125      0.0001
     47  N         47.3340    7.4310   30.0760 N.3   176  GLU176     -0.1245
     48  CA        46.9240    6.1730   29.4660 C.3   176  GLU176      0.1567
     49  C         47.9590    5.6040   28.5060 C.2   176  GLU176      0.2260
     50  O         48.7730    6.3390   27.9430 O.2   176  GLU176     -0.2867
     51  CB        45.6040    6.3630   28.7140 C.3   176  GLU176      0.0388
     52  CG        44.4100    6.7590   29.5760 C.3   176  GLU176      0.1160
     53  CD        43.0740    6.4960   28.8880 C.2   176  GLU176      0.3649
     54  OE1       42.5510    7.4010   28.1960 O.co2 176  GLU176     -0.2457
     55  OE2       42.5500    5.3710   29.0330 O.co2 176  GLU176     -0.2457
     56  N         49.0200   10.2040   26.7240 N.3   181  SER181     -0.1202
     57  CA        47.6980   10.8230   26.5800 C.3   181  SER181      0.2020
     58  C         46.9940   10.6530   27.9350 C.2   181  SER181      0.2619
     59  O         47.3470    9.7460   28.6990 O.2   181  SER181     -0.2717
     60  CB        46.8780   10.1490   25.4550 C.3   181  SER181      0.2103
     61  OG        46.7620    8.7320   25.6020 O.3   181  SER181     -0.2182
     62  N         46.0810   11.5690   28.2710 N.am  182  CYS182     -0.1955
     63  CA        45.3210   11.4770   29.5260 C.3   182  CYS182      0.1843
     64  C         43.8320   11.3090   29.2540 C.2   182  CYS182      0.2626
     65  O         43.3120   11.8300   28.2620 O.2   182  CYS182     -0.2714
     66  CB        45.5770   12.6740   30.4630 C.3   182  CYS182      0.0997
     67  SG        47.0920   12.4760   31.4600 S.3   182  CYS182     -0.0797
     68  N         43.1800   10.5360   30.1270 N.am  183  GLY183     -0.1940
     69  CA        41.7550   10.2600   30.0290 C.3   183  GLY183      0.2014
     70  C         41.1720    9.9460   31.3970 C.2   183  GLY183      0.2638
     71  O         41.9180    9.8560   32.3730 O.2   183  GLY183     -0.2714
     72  N         39.8490    9.7780   31.4770 N.am  184  ILE184     -0.1977
     73  CA        39.1720    9.4780   32.7450 C.3   184  ILE184      0.1596
     74  C         39.7710    8.2500   33.4410 C.2   184  ILE184      0.2287
     75  O         40.1850    7.2880   32.7900 O.2   184  ILE184     -0.2864
     76  CB        37.6230    9.3450   32.5630 C.3   184  ILE184      0.0276
     77  CG1       36.9600   10.7290   32.6070 C.3   184  ILE184      0.0022
     78  CG2       37.0070    8.4860   33.6620 C.3   184  ILE184      0.0022
     79  CD1       37.2290   11.6020   31.4180 C.3   184  ILE184      0.0001
     80  N         39.7680    5.1880   34.6000 N.3   186  TYR186     -0.1241
     81  CA        39.0540    3.9300   34.4690 C.3   186  TYR186      0.1605
     82  C         39.7950    2.8970   35.3150 C.2   186  TYR186      0.2264
     83  O         39.2020    1.9790   35.8830 O.2   186  TYR186     -0.2867
     84  CB        39.0700    3.4630   32.9940 C.3   186  TYR186      0.0534
     85  CG        38.7540    4.5250   31.9490 C.ar  186  TYR186     -0.0201
     86  CD1       37.4900    5.0990   31.8690 C.ar  186  TYR186     -0.0009
     87  CD2       39.7240    4.9620   31.0480 C.ar  186  TYR186     -0.0009
     88  CE1       37.1960    6.0900   30.9150 C.ar  186  TYR186      0.0417
     89  CE2       39.4410    5.9520   30.0940 C.ar  186  TYR186      0.0417
     90  CZ        38.1740    6.5120   30.0360 C.ar  186  TYR186      0.1957
     91  OH        37.8720    7.5060   29.1280 O.3   186  TYR186     -0.2866
     92  N         29.4050    9.1060   33.3860 N.3   202  MET202     -0.1230
     93  CA        29.8500    9.5660   32.0680 C.3   202  MET202      0.1702
     94  C         29.3990    8.5980   30.9780 C.2   202  MET202      0.2592
     95  O         28.9580    9.0170   29.9050 O.2   202  MET202     -0.2718
     96  CB        31.3820    9.7210   32.0410 C.3   202  MET202      0.0401
     97  CG        31.9650   10.1170   30.6780 C.3   202  MET202      0.0596
     98  SD        33.7860   10.1030   30.5730 S.3   202  MET202     -0.1393
     99  CE        34.1180    8.3290   30.4200 C.3   202  MET202      0.0692
    100  N         29.4930    7.3040   31.2600 N.am  203  PHE203     -0.1976
    101  CA        29.0860    6.3100   30.2890 C.3   203  PHE203      0.1639
    102  C         27.5970    6.2950   30.0300 C.2   203  PHE203      0.2290
    103  O         27.1700    5.8430   28.9770 O.2   203  PHE203     -0.2864
    104  CB        29.5760    4.9260   30.6810 C.3   203  PHE203      0.0560
    105  CG        30.9160    4.5880   30.1030 C.ar  203  PHE203     -0.0200
    106  CD1       31.0640    3.4980   29.2500 C.ar  203  PHE203     -0.0042
    107  CD2       32.0310    5.3760   30.3880 C.ar  203  PHE203     -0.0042
    108  CE1       32.2970    3.1990   28.6890 C.ar  203  PHE203     -0.0003
    109  CE2       33.2700    5.0850   29.8310 C.ar  203  PHE203     -0.0003
    110  CZ        33.4020    3.9950   28.9810 C.ar  203  PHE203     -0.0000
    111  N         26.7850   10.7310   29.1690 N.3   206  HIS206     -0.1226
    112  CA        27.5890   11.3240   28.1110 C.3   206  HIS206      0.1752
    113  C         28.0310   10.3570   27.0510 C.2   206  HIS206      0.2596
    114  O         28.9540   10.6460   26.2930 O.2   206  HIS206     -0.2718
    115  CB        28.7930   12.0350   28.7110 C.3   206  HIS206      0.0759
    116  CG        28.4280   13.2560   29.4860 C.ar  206  HIS206      0.0818
    117  ND1       28.0180   14.4220   28.8780 N.ar  206  HIS206     -0.2268
    118  CD2       28.3710   13.4810   30.8180 C.ar  206  HIS206      0.1154
    119  CE1       27.7210   15.3130   29.8050 C.ar  206  HIS206      0.1986
    120  NE2       27.9270   14.7680   30.9910 N.ar  206  HIS206     -0.2212
    121  N         27.3400    9.2270   26.9740 N.am  207  PHE207     -0.1976
    122  CA        27.6610    8.2110   25.9850 C.3   207  PHE207      0.1639
    123  C         26.4110    7.4680   25.5290 C.2   207  PHE207      0.2290
    124  O         25.8900    7.7090   24.4370 O.2   207  PHE207     -0.2864
    125  CB        28.7030    7.2260   26.5510 C.3   207  PHE207      0.0560
    126  CG        29.1450    6.1670   25.5700 C.ar  207  PHE207     -0.0200
    127  CD1       29.3150    6.4670   24.2200 C.ar  207  PHE207     -0.0042
    128  CD2       29.3720    4.8620   25.9950 C.ar  207  PHE207     -0.0042
    129  CE1       29.7020    5.4820   23.3100 C.ar  207  PHE207     -0.0003
    130  CE2       29.7600    3.8670   25.0930 C.ar  207  PHE207     -0.0003
    131  CZ        29.9240    4.1800   23.7480 C.ar  207  PHE207     -0.0000
    132  N         32.0750    9.3860   13.9720 N.3   240  PHE240     -0.1241
    133  CA        32.2770    9.6430   15.3950 C.3   240  PHE240      0.1605
    134  C         32.3820    8.3050   16.1210 C.2   240  PHE240      0.2264
    135  O         33.2390    8.1040   16.9780 O.2   240  PHE240     -0.2867
    136  CB        31.0760   10.4350   15.9230 C.3   240  PHE240      0.0534
    137  CG        31.1170   10.7130   17.4040 C.ar  240  PHE240     -0.0203
    138  CD1       31.6640   11.9080   17.8900 C.ar  240  PHE240     -0.0042
    139  CD2       30.5780    9.7980   18.3170 C.ar  240  PHE240     -0.0042
    140  CE1       31.6730   12.1910   19.2620 C.ar  240  PHE240     -0.0003
    141  CE2       30.5830   10.0680   19.6940 C.ar  240  PHE240     -0.0003
    142  CZ        31.1320   11.2700   20.1650 C.ar  240  PHE240     -0.0000
    143  N         35.4540    6.9630   18.5530 N.3   244  TRP244     -0.1241
    144  CA        35.1670    6.6890   19.9470 C.3   244  TRP244      0.1605
    145  C         34.7500    5.2920   20.3870 C.2   244  TRP244      0.2264
    146  O         34.8710    4.9750   21.5620 O.2   244  TRP244     -0.2867
    147  CB        34.1990    7.7540   20.4740 C.3   244  TRP244      0.0550
    148  CG        34.7250    9.1480   20.2470 C.ar  244  TRP244      0.0003
    149  CD1       34.3230   10.0270   19.2860 C.ar  244  TRP244      0.0946
    150  CD2       35.7880    9.8000   20.9650 C.ar  244  TRP244      0.0152
    151  NE1       35.0660   11.1900   19.3550 N.ar  244  TRP244     -0.2442
    152  CE2       35.9710   11.0760   20.3770 C.ar  244  TRP244      0.0810
    153  CE3       36.6070    9.4290   22.0470 C.ar  244  TRP244      0.0012
    154  CZ2       36.9380   11.9830   20.8320 C.ar  244  TRP244      0.0191
    155  CZ3       37.5740   10.3340   22.5010 C.ar  244  TRP244      0.0001
    156  CH2       37.7270   11.5950   21.8910 C.ar  244  TRP244      0.0015
    157  N         37.8440    3.4140   21.2480 N.3   247  TYR247     -0.1227
    158  CA        38.3110    3.9580   22.5080 C.3   247  TYR247      0.1736
    159  C         37.3920    3.5850   23.6590 C.2   247  TYR247      0.2595
    160  O         37.7930    2.8780   24.5780 O.2   247  TYR247     -0.2718
    161  CB        38.4020    5.4680   22.4360 C.3   247  TYR247      0.0548
    162  CG        38.7550    6.0670   23.7680 C.ar  247  TYR247     -0.0200
    163  CD1       40.0630    5.9940   24.2550 C.ar  247  TYR247     -0.0009
    164  CD2       37.7910    6.7160   24.5440 C.ar  247  TYR247     -0.0009
    165  CE1       40.4100    6.5570   25.4790 C.ar  247  TYR247      0.0417
    166  CE2       38.1250    7.2860   25.7760 C.ar  247  TYR247      0.0417
    167  CZ        39.4400    7.2040   26.2330 C.ar  247  TYR247      0.1957
    168  OH        39.7980    7.7820   27.4270 O.3   247  TYR247     -0.2866
    169  N         36.1740    4.1200   23.6220 N.am  248  ALA248     -0.1980
    170  CA        35.1560    3.8780   24.6430 C.3   248  ALA248      0.1597
    171  C         35.0310    2.4020   25.0000 C.2   248  ALA248      0.2287
    172  O         34.7950    2.0630   26.1580 O.2   248  ALA248     -0.2864
    173  CB        33.8090    4.4140   24.1800 C.3   248  ALA248      0.0319
    174  N         42.9480    5.3850   21.6170 N.3   271  ALA271     -0.1245
    175  CA        43.1170    6.7190   22.1970 C.3   271  ALA271      0.1562
    176  C         43.7760    7.7290   21.2700 C.2   271  ALA271      0.2260
    177  O         43.3550    8.8860   21.2240 O.2   271  ALA271     -0.2867
    178  CB        43.8820    6.6350   23.5090 C.3   271  ALA271      0.0290
    179  N         41.5190    8.1710   18.0680 N.3   274  ALA274     -0.1231
    180  CA        40.4110    9.0530   18.4370 C.3   274  ALA274      0.1694
    181  C         40.6700   10.5680   18.3210 C.2   274  ALA274      0.2591
    182  O         39.7220   11.3670   18.2870 O.2   274  ALA274     -0.2718
    183  CB        39.9240    8.7000   19.8390 C.3   274  ALA274      0.0304
    184  N         41.9410   10.9630   18.2510 N.am  275  LYS275     -0.1980
    185  CA        42.2870   12.3740   18.1270 C.3   275  LYS275      0.1596
    186  C         41.9890   12.9600   16.7460 C.2   275  LYS275      0.2287
    187  O         42.0450   14.1770   16.5810 O.2   275  LYS275     -0.2864
    188  CB        43.7500   12.5980   18.4950 C.3   275  LYS275      0.0298
    189  CG        43.9190   12.6780   20.0090 C.3   275  LYS275      0.0038
    190  CD        45.2120   11.9550   20.4040 C.3   275  LYS275      0.0206
    191  CE        45.7460   12.1620   21.8220 C.3   275  LYS275      0.1093
    192  NZ        44.8390   12.2090   22.9720 N.3   275  LYS275     -0.1314
@<TRIPOS>BOND
     1   132   133    1
     2   133   136    1
     3   133   134    1
     4   136   137    1
     5   134   135    2
     6   187   186    2
     7   186   185    1
     8   137   138   ar
     9   137   139   ar
    10   138   140   ar
    11   179   180    1
    12   185   184    1
    13   185   188    1
    14   184   181   am
    15   182   181    2
    16   139   141   ar
    17   181   180    1
    18   180   183    1
    19   188   189    1
    20   143   144    1
    21   140   142   ar
    22   149   151   ar
    23   149   148   ar
    24   151   152   ar
    25   141   142   ar
    26   144   145    1
    27   144   147    1
    28   189   190    1
    29   148   147    1
    30   148   150   ar
    31    39    40    1
    32   152   154   ar
    33   152   150   ar
    34   145   146    2
    35   190   191    1
    36    42    41    2
    37    40    41    1
    38    40    43    1
    39   154   156   ar
    40   150   153   ar
    41   177   176    2
    42   157   158    1
    43   176   175    1
    44    29    28    2
    45   174   175    1
    46    27    26    1
    47    27    28    1
    48   191   192    1
    49   156   155   ar
    50    43    44    1
    51    46    44    1
    52   153   155   ar
    53   175   178    1
    54    28    30   am
    55   161   158    1
    56   161   162    1
    57   158   159    1
    58    44    45    1
    59    33    32    2
    60    32    31    1
    61   129   131   ar
    62   129   127   ar
    63    30    31    1
    64   169   159   am
    65   169   170    1
    66   159   160    2
    67    17    16    2
    68   131   130   ar
    69   162   163   ar
    70   162   164   ar
    71    31    34    1
    72   173   170    1
    73   127   126   ar
    74    15    18    1
    75    15    16    1
    76    15    14    1
    77   163   165   ar
    78     8     7   ar
    79   124   123    2
    80   164   166   ar
    81    16    19   am
    82   170   171    1
    83   171   172    2
    84   130   128   ar
    85    60    61    1
    86    60    57    1
    87   165   167   ar
    88    34    35    1
    89   123   122    1
    90    22    21    2
    91   126   128   ar
    92   126   125    1
    93    38    36   ar
    94     7     9   ar
    95     7     6    1
    96   166   167   ar
    97    19    20    1
    98    21    20    1
    99   122   125    1
   100   122   121    1
   101    36    35    1
   102    36    37   ar
   103   167   168    1
   104   114   113    2
   105    20    23    1
   106     4     3    2
   107     6     5    1
   108    57    56    1
   109    57    58    1
   110   121   113   am
   111   113   112    1
   112     3     2    1
   113     3    10   am
   114     2     5    1
   115     2     1    1
   116    23    24    1
   117    23    25    1
   118    58    62   am
   119    58    59    2
   120    50    49    2
   121    13    12    2
   122   112   115    1
   123   112   111    1
   124    54    53   ar
   125    65    64    2
   126    62    63    1
   127    49    48    1
   128    10    11    1
   129    12    11    1
   130   108   110   ar
   131   108   106   ar
   132   115   116    1
   133    51    48    1
   134    51    52    1
   135   117   116   ar
   136   117   119   ar
   137    53    55   ar
   138    53    52    1
   139   103   102    2
   140   110   109   ar
   141    91    90    1
   142   106   105   ar
   143    64    63    1
   144    64    68   am
   145    48    47    1
   146   116   118   ar
   147    63    66    1
   148   119   120   ar
   149   109   107   ar
   150    95    94    2
   151    69    68    1
   152    69    70    1
   153   102   101    1
   154    90    89   ar
   155    90    88   ar
   156    89    87   ar
   157   105   107   ar
   158   105   104    1
   159   101   104    1
   160   101   100    1
   161    99    98    1
   162    66    67    1
   163    98    97    1
   164    97    96    1
   165   118   120   ar
   166    88    86   ar
   167    94   100   am
   168    94    93    1
   169    87    85   ar
   170    70    72   am
   171    70    71    2
   172    79    77    1
   173    72    73    1
   174    86    85   ar
   175    85    84    1
   176    96    93    1
   177    93    92    1
   178    76    77    1
   179    76    73    1
   180    76    78    1
   181    73    74    1
   182    75    74    2
   183    84    81    1
   184    81    80    1
   185    81    82    1
   186    82    83    2
