@<TRIPOS>MOLECULE
tmp/1f8aA00.pdb
 156 151 0 0 0
SMALL
GASTEIGER

@<TRIPOS>ATOM
      1  N         -2.5770   10.8180   62.5930 N.3    18  ARG18      -0.1231
      2  CA        -2.1840   12.2150   62.5360 C.3    18  ARG18       0.1694
      3  C         -3.3940   13.1270   62.6720 C.2    18  ARG18       0.2592
      4  O         -4.5310   12.6580   62.6970 O.2    18  ARG18      -0.2718
      5  CB        -1.4350   12.4820   61.2330 C.3    18  ARG18       0.0321
      6  CG        -0.2380   11.5630   61.0690 C.3    18  ARG18       0.0489
      7  CD         0.4980   11.8350   59.7910 C.3    18  ARG18       0.2205
      8  NE         1.1960   13.1090   59.8590 N.pl3  18  ARG18      -0.0865
      9  CZ         2.5170   13.2300   59.8840 C.cat  18  ARG18       0.5346
     10  NH1        3.0660   14.4280   59.9520 N.pl3  18  ARG18       0.1354
     11  NH2        3.2910   12.1540   59.8300 N.pl3  18  ARG18       0.1354
     12  N         -3.1460   14.4280   62.7770 N.am   19  MET19      -0.1965
     13  CA        -4.2240   15.3960   62.9220 C.3    19  MET19       0.1736
     14  C         -4.2930   16.4050   61.7900 C.2    19  MET19       0.2617
     15  O         -3.2690   16.8860   61.3060 O.2    19  MET19      -0.2715
     16  CB        -4.0890   16.1680   64.2360 C.3    19  MET19       0.0427
     17  CG        -4.6420   15.4570   65.4520 C.3    19  MET19       0.0599
     18  SD        -5.2060   16.6110   66.7350 S.3    19  MET19      -0.1393
     19  CE        -5.1530   18.2030   65.8650 C.3    19  MET19       0.0692
     20  N         -5.5140   16.7270   61.3810 N.am   20  SER20      -0.1936
     21  CA        -5.7400   17.7050   60.3280 C.3    20  SER20       0.2055
     22  C         -5.4800   19.0980   60.8910 C.2    20  SER20       0.2643
     23  O         -6.0910   19.4960   61.8830 O.2    20  SER20      -0.2714
     24  CB        -7.1840   17.6090   59.8250 C.3    20  SER20       0.2130
     25  OG        -7.6750   18.8750   59.4140 O.3    20  SER20      -0.2179
     26  N         -4.5570   19.8280   60.2720 N.am   21  ARG21      -0.1963
     27  CA        -4.2380   21.1860   60.7110 C.3    21  ARG21       0.1729
     28  C         -5.4880   22.0530   60.5790 C.2    21  ARG21       0.2616
     29  O         -5.7010   22.9830   61.3540 O.2    21  ARG21      -0.2715
     30  CB        -3.1250   21.7960   59.8440 C.3    21  ARG21       0.0348
     31  CG        -1.6940   21.4150   60.2170 C.3    21  ARG21       0.0492
     32  CD        -1.0640   20.4380   59.2240 C.3    21  ARG21       0.2205
     33  NE        -1.8050   20.3600   57.9710 N.pl3  21  ARG21      -0.0865
     34  CZ        -1.2300   20.3190   56.7700 C.cat  21  ARG21       0.5346
     35  NH1        0.0940   20.3550   56.6600 N.pl3  21  ARG21       0.1354
     36  NH2       -1.9720   20.2250   55.6720 N.pl3  21  ARG21       0.1354
     37  N         -6.3110   21.7290   59.5890 N.am   22  SER22      -0.1950
     38  CA        -7.5270   22.4730   59.3030 C.3    22  SER22       0.1924
     39  C         -8.7260   22.2650   60.2270 C.2    22  SER22       0.2314
     40  O         -9.3260   23.2350   60.6900 O.2    22  SER22      -0.2863
     41  CB        -7.9500   22.2010   57.8560 C.3    22  SER22       0.2116
     42  OG        -9.3080   22.5410   57.6430 O.3    22  SER22      -0.2180
     43  N         -9.4450   17.2510   63.1690 N.3    25  ARG25      -0.1245
     44  CA        -9.9630   15.8960   63.0190 C.3    25  ARG25       0.1563
     45  C         -8.8060   14.9160   62.7830 C.2    25  ARG25       0.2260
     46  O         -7.8460   15.2350   62.0810 O.2    25  ARG25      -0.2867
     47  CB       -10.9360   15.8840   61.8380 C.3    25  ARG25       0.0307
     48  CG       -11.6310   14.5760   61.5220 C.3    25  ARG25       0.0489
     49  CD       -12.5480   14.8100   60.3300 C.3    25  ARG25       0.2205
     50  NE       -13.1530   13.5920   59.8060 N.pl3  25  ARG25      -0.0865
     51  CZ       -13.7960   13.5310   58.6450 C.cat  25  ARG25       0.5346
     52  NH1      -13.9130   14.6170   57.8920 N.pl3  25  ARG25       0.1354
     53  NH2      -14.3160   12.3840   58.2320 N.pl3  25  ARG25       0.1354
     54  N         -6.8190   11.6210   61.3130 N.3    27  TYR27      -0.1241
     55  CA        -6.8030   10.8860   60.0510 C.3    27  TYR27       0.1605
     56  C         -5.6240    9.9250   60.0690 C.2    27  TYR27       0.2264
     57  O         -4.7740    9.9990   60.9600 O.2    27  TYR27      -0.2867
     58  CB        -6.7460   11.8360   58.8390 C.3    27  TYR27       0.0534
     59  CG        -5.4420   12.5630   58.5820 C.ar   27  TYR27      -0.0201
     60  CD1       -4.4340   11.9850   57.8030 C.ar   27  TYR27      -0.0009
     61  CD2       -5.2450   13.8580   59.0550 C.ar   27  TYR27      -0.0009
     62  CE1       -3.2660   12.6880   57.4960 C.ar   27  TYR27       0.0417
     63  CE2       -4.0840   14.5670   58.7580 C.ar   27  TYR27       0.0417
     64  CZ        -3.1000   13.9810   57.9780 C.ar   27  TYR27       0.1957
     65  OH        -1.9620   14.6980   57.6830 O.3    27  TYR27      -0.2866
     66  N         -2.3320    8.0170   58.0650 N.3    29  PHE29      -0.1241
     67  CA        -1.3270    8.1340   57.0240 C.3    29  PHE29       0.1605
     68  C         -0.4680    6.8780   56.9360 C.2    29  PHE29       0.2264
     69  O         -0.0290    6.3370   57.9510 O.2    29  PHE29      -0.2867
     70  CB        -0.4610    9.3590   57.3440 C.3    29  PHE29       0.0534
     71  CG         0.7760    9.4880   56.5060 C.ar   29  PHE29      -0.0203
     72  CD1        0.6910    9.7780   55.1490 C.ar   29  PHE29      -0.0042
     73  CD2        2.0340    9.3660   57.0890 C.ar   29  PHE29      -0.0042
     74  CE1        1.8430    9.9520   54.3860 C.ar   29  PHE29      -0.0003
     75  CE2        3.1910    9.5380   56.3370 C.ar   29  PHE29      -0.0003
     76  CZ         3.0980    9.8310   54.9840 C.ar   29  PHE29      -0.0000
     77  N          2.2700    6.5680   51.2990 N.3    34  ASN34      -0.1240
     78  CA         2.0750    8.0020   51.4670 C.3    34  ASN34       0.1653
     79  C          0.6290    8.4430   51.2620 C.2    34  ASN34       0.2266
     80  O          0.3470    9.6210   51.0340 O.2    34  ASN34      -0.2867
     81  CB         3.0240    8.7950   50.5590 C.3    34  ASN34       0.1155
     82  CG         4.4640    8.7370   51.0470 C.2    34  ASN34       0.2627
     83  OD1        4.7120    8.5180   52.2360 O.2    34  ASN34      -0.2716
     84  ND2        5.4160    8.9470   50.1440 N.am   34  ASN34      -0.0877
     85  N         -3.3090    9.1290   52.4720 N.3    36  SER36      -0.1202
     86  CA        -3.9990    9.6510   53.6500 C.3    36  SER36       0.2020
     87  C         -5.4870    9.3250   53.5410 C.2    36  SER36       0.2619
     88  O         -6.0750    9.4470   52.4690 O.2    36  SER36      -0.2717
     89  CB        -3.8280   11.1720   53.7520 C.3    36  SER36       0.2103
     90  OG        -2.4860   11.5300   54.0360 O.3    36  SER36      -0.2182
     91  N         -6.0910    8.9100   54.6500 N.am   37  GLN37      -0.1965
     92  CA        -7.5160    8.5860   54.6690 C.3    37  GLN37       0.1733
     93  C         -8.1040    8.8810   56.0470 C.2    37  GLN37       0.2616
     94  O         -7.4140    8.7750   57.0580 O.2    37  GLN37      -0.2715
     95  CB        -7.7390    7.1120   54.3170 C.3    37  GLN37       0.0408
     96  CG        -7.0840    6.1190   55.2690 C.3    37  GLN37       0.0908
     97  CD        -7.3430    4.6760   54.8680 C.2    37  GLN37       0.2608
     98  OE1       -7.1160    4.2890   53.7240 O.2    37  GLN37      -0.2717
     99  NE2       -7.8140    3.8720   55.8140 N.am   37  GLN37      -0.0878
    100  N         -9.3810    9.2520   56.0760 N.am   38  TRP38      -0.1974
    101  CA       -10.0740    9.5680   57.3220 C.3    38  TRP38       0.1640
    102  C        -10.3620    8.3360   58.1730 C.2    38  TRP38       0.2290
    103  O        -10.2000    8.3540   59.3920 O.2    38  TRP38      -0.2864
    104  CB       -11.4050   10.2680   57.0240 C.3    38  TRP38       0.0576
    105  CG       -11.2770   11.6470   56.4610 C.ar   38  TRP38       0.0006
    106  CD1      -11.7450   12.0850   55.2570 C.ar   38  TRP38       0.0946
    107  CD2      -10.6650   12.7760   57.0920 C.ar   38  TRP38       0.0152
    108  NE1      -11.4660   13.4210   55.0970 N.ar   38  TRP38      -0.2442
    109  CE2      -10.8020   13.8720   56.2090 C.ar   38  TRP38       0.0810
    110  CE3      -10.0120   12.9770   58.3160 C.ar   38  TRP38       0.0012
    111  CZ2      -10.3100   15.1450   56.5090 C.ar   38  TRP38       0.0191
    112  CZ3       -9.5210   14.2440   58.6180 C.ar   38  TRP38       0.0001
    113  CH2       -9.6750   15.3120   57.7150 C.ar   38  TRP38       0.0015
    114  N          5.4960   18.2390   42.5590 N.3    78  LEU78      -0.1245
    115  CA         4.7050   17.7800   43.6950 C.3    78  LEU78       0.1561
    116  C          3.3450   18.4780   43.7160 C.2    78  LEU78       0.2260
    117  O          2.3350   17.8750   44.0770 O.2    78  LEU78      -0.2867
    118  CB         5.4480   18.0360   45.0150 C.3    78  LEU78       0.0270
    119  CG         4.7480   17.5730   46.3020 C.3    78  LEU78       0.0019
    120  CD1        4.3170   16.1120   46.1750 C.3    78  LEU78       0.0001
    121  CD2        5.6840   17.7570   47.4910 C.3    78  LEU78       0.0001
    122  N         -0.1670   16.5690   43.6680 N.3    82  ASN82      -0.1240
    123  CA        -1.1890   16.7480   44.6910 C.3    82  ASN82       0.1653
    124  C         -2.5220   17.1640   44.0860 C.2    82  ASN82       0.2266
    125  O         -3.5780   16.7530   44.5640 O.2    82  ASN82      -0.2867
    126  CB        -0.7440   17.7690   45.7410 C.3    82  ASN82       0.1155
    127  CG         0.2740   17.1950   46.7070 C.2    82  ASN82       0.2627
    128  OD1        0.1760   16.0350   47.1030 O.2    82  ASN82      -0.2716
    129  ND2        1.2500   18.0070   47.1000 N.am   82  ASN82      -0.0877
    130  N         -9.5470   11.8070   43.8530 N.3    89  LYS89      -0.1245
    131  CA       -10.3070   11.4860   45.0620 C.3    89  LYS89       0.1561
    132  C        -11.6880   12.1350   45.0560 C.2    89  LYS89       0.2260
    133  O        -12.6510   11.5660   45.5740 O.2    89  LYS89      -0.2867
    134  CB        -9.5620   11.9500   46.3140 C.3    89  LYS89       0.0271
    135  CG        -8.3880   11.0820   46.7300 C.3    89  LYS89       0.0035
    136  CD        -7.8750   11.5600   48.0790 C.3    89  LYS89       0.0206
    137  CE        -6.8770   10.6000   48.6900 C.3    89  LYS89       0.1093
    138  NZ        -6.4980   11.0460   50.0640 N.3    89  LYS89      -0.1314
    139  N          1.8340   10.7320   47.0470 N.3   141  PRO141     -0.2116
    140  CA         3.0030   10.9740   46.1910 C.3   141  PRO141      0.1372
    141  C          4.1610   10.0570   46.5770 C.2   141  PRO141      0.2244
    142  O          4.5720   10.0200   47.7410 O.2   141  PRO141     -0.2868
    143  CB         3.3340   12.4500   46.4480 C.3   141  PRO141      0.0268
    144  CG         2.0470   13.0180   47.0440 C.3   141  PRO141      0.0207
    145  CD         1.5670   11.8930   47.9090 C.3   141  PRO141      0.0892
    146  N          8.1160    9.0840   45.7020 N.3   143  PHE143     -0.1241
    147  CA         9.3300    9.5860   45.0720 C.3   143  PHE143      0.1605
    148  C         10.3280    8.4980   44.6890 C.2   143  PHE143      0.2264
    149  O         10.6870    7.6580   45.5110 O.2   143  PHE143     -0.2867
    150  CB        10.0390   10.5830   46.0010 C.3   143  PHE143      0.0534
    151  CG         9.2170   11.7930   46.3540 C.ar  143  PHE143     -0.0203
    152  CD1        8.1470   11.6950   47.2410 C.ar  143  PHE143     -0.0042
    153  CD2        9.5200   13.0360   45.8070 C.ar  143  PHE143     -0.0042
    154  CE1        7.3930   12.8200   47.5780 C.ar  143  PHE143     -0.0003
    155  CE2        8.7710   14.1650   46.1370 C.ar  143  PHE143     -0.0003
    156  CZ         7.7070   14.0540   47.0240 C.ar  143  PHE143     -0.0000
@<TRIPOS>BOND
     1   114   115    1
     2   122   123    1
     3   115   116    1
     4   115   118    1
     5   116   117    2
     6   130   131    1
     7   124   125    2
     8   124   123    1
     9   148   147    1
    10   148   149    2
    11   123   126    1
    12   118   119    1
    13   132   131    1
    14   132   133    2
    15   131   134    1
    16   147   146    1
    17   147   150    1
    18   126   127    1
    19   153   155   ar
    20   153   151   ar
    21   150   151    1
    22   155   156   ar
    23   120   119    1
    24   140   143    1
    25   140   141    1
    26   140   139    1
    27   119   121    1
    28   134   135    1
    29   151   152   ar
    30   143   144    1
    31   141   142    2
    32   127   129   am
    33   127   128    2
    34   135   136    1
    35   156   154   ar
    36   144   145    1
    37   139   145    1
    38   152   154   ar
    39   136   137    1
    40   137   138    1
    41    84    82   am
    42    81    82    1
    43    81    78    1
    44    80    79    2
    45    82    83    2
    46    79    78    1
    47    77    78    1
    48    88    87    2
    49    85    86    1
    50    87    86    1
    51    87    91   am
    52    86    89    1
    53    98    97    2
    54    89    90    1
    55    95    92    1
    56    95    96    1
    57    74    76   ar
    58    74    72   ar
    59    91    92    1
    60    92    93    1
    61    97    96    1
    62    97    99   am
    63    76    75   ar
    64   108   106   ar
    65   108   109   ar
    66    72    71   ar
    67   106   105   ar
    68    36    34    1
    69    93   100   am
    70    93    94    2
    71   100   101    1
    72   109   111   ar
    73   109   107   ar
    74    75    73   ar
    75   105   104    1
    76   105   107   ar
    77    71    73   ar
    78    71    70    1
    79   111   113   ar
    80    35    34    1
    81    34    33    2
    82    68    67    1
    83    68    69    2
    84   104   101    1
    85    67    70    1
    86    67    66    1
    87   107   110   ar
    88   101   102    1
    89    62    60   ar
    90    62    64   ar
    91    42    41    1
    92    65    64    1
    93   113   112   ar
    94    60    59   ar
    95    41    38    1
    96    52    51    1
    97    33    32    1
    98    64    63   ar
    99   102   103    2
   100    53    51    1
   101   110   112   ar
   102    59    58    1
   103    59    61   ar
   104    51    50    2
   105    63    61   ar
   106    58    55    1
   107    32    31    1
   108    38    37    1
   109    38    39    1
   110    25    24    1
   111    37    28   am
   112     7     8    1
   113     7     6    1
   114    50    49    1
   115    24    21    1
   116    11     9    1
   117    30    31    1
   118    30    27    1
   119     8     9    2
   120     9    10    1
   121    55    56    1
   122    55    54    1
   123    56    57    2
   124    39    40    2
   125    26    27    1
   126    26    22   am
   127    21    22    1
   128    21    20    1
   129    49    48    1
   130    28    27    1
   131    28    29    2
   132    22    23    2
   133     6     5    1
   134     5     2    1
   135    15    14    2
   136    20    14   am
   137    48    47    1
   138    14    13    1
   139    47    44    1
   140    46    45    2
   141     2     1    1
   142     2     3    1
   143     3     4    2
   144     3    12   am
   145    12    13    1
   146    45    44    1
   147    13    16    1
   148    44    43    1
   149    16    17    1
   150    17    18    1
   151    19    18    1
