@<TRIPOS>MOLECULE
tmp/1f8cA01.pdb
 171 160 0 0 0
SMALL
GASTEIGER

@<TRIPOS>ATOM
      1  N         15.6260   13.1970   63.1780 N.3    37  ARG37      -0.1231
      2  CA        16.2720   14.5210   63.1690 C.3    37  ARG37       0.1694
      3  C         16.8240   14.6810   61.7450 C.2    37  ARG37       0.2591
      4  O         16.8090   13.7230   60.9580 O.2    37  ARG37      -0.2718
      5  CB        17.3700   14.7120   64.2570 C.3    37  ARG37       0.0321
      6  CG        16.8790   15.5500   65.4810 C.3    37  ARG37       0.0489
      7  CD        17.9180   16.5600   66.0200 C.3    37  ARG37       0.2205
      8  NE        18.2010   17.5930   65.0250 N.pl3  37  ARG37      -0.0865
      9  CZ        19.3520   18.2550   64.8940 C.cat  37  ARG37       0.5346
     10  NH1       19.4710   19.1680   63.9340 N.pl3  37  ARG37       0.1354
     11  NH2       20.3740   18.0280   65.7240 N.pl3  37  ARG37       0.1354
     12  N         17.2690   15.8870   61.4070 N.am   38  GLU38      -0.1979
     13  CA        17.8340   16.1850   60.0850 C.3    38  GLU38       0.1602
     14  C         16.8440   15.8430   58.9690 C.2    38  GLU38       0.2287
     15  O         17.1800   15.1540   58.0130 O.2    38  GLU38      -0.2864
     16  CB        19.1540   15.4200   59.8760 C.3    38  GLU38       0.0415
     17  CG        20.3070   15.8070   60.8440 C.3    38  GLU38       0.1163
     18  CD        20.2960   15.0620   62.2030 C.2    38  GLU38       0.3649
     19  OE1       19.7890   13.9210   62.2840 O.co2  38  GLU38      -0.2457
     20  OE2       20.8010   15.6170   63.2080 O.co2  38  GLU38      -0.2457
     21  N         24.3020   11.8680   67.4910 N.3    70  ASP70      -0.1225
     22  CA        24.2490   11.9850   66.0340 C.3    70  ASP70       0.1805
     23  C         24.5430   10.8060   65.1170 C.2    70  ASP70       0.2597
     24  O         23.9120   10.6560   64.0840 O.2    70  ASP70      -0.2718
     25  CB        25.1970   13.1120   65.6030 C.3    70  ASP70       0.1424
     26  CG        24.8010   14.4570   66.1550 C.2    70  ASP70       0.3668
     27  OD1       23.7340   14.9750   65.7650 O.co2  70  ASP70      -0.2456
     28  OD2       25.5680   14.9990   66.9810 O.co2  70  ASP70      -0.2456
     29  N         25.5300    9.9920   65.4760 N.am   71  ARG71      -0.1979
     30  CA        25.9500    8.9300   64.5850 C.3    71  ARG71       0.1597
     31  C         26.0500    7.5700   65.2230 C.2    71  ARG71       0.2287
     32  O         27.0270    7.2820   65.8990 O.2    71  ARG71      -0.2864
     33  CB        27.3130    9.3000   63.9890 C.3    71  ARG71       0.0334
     34  CG        27.3920   10.7120   63.4090 C.3    71  ARG71       0.0492
     35  CD        28.8160   11.0590   62.9680 C.3    71  ARG71       0.2205
     36  NE        29.7280   11.1750   64.1070 N.pl3  71  ARG71      -0.0865
     37  CZ        29.7590   12.2120   64.9430 C.cat  71  ARG71       0.5346
     38  NH1       30.6190   12.2280   65.9480 N.pl3  71  ARG71       0.1354
     39  NH2       28.9350   13.2370   64.7810 N.pl3  71  ARG71       0.1354
     40  N         20.8430    4.3580   62.7070 N.3    75  ARG75      -0.1245
     41  CA        20.2270    5.4140   61.9260 C.3    75  ARG75       0.1563
     42  C         20.0800    5.0100   60.4710 C.2    75  ARG75       0.2260
     43  O         20.8030    4.1400   59.9670 O.2    75  ARG75      -0.2867
     44  CB        21.0580    6.6840   62.0190 C.3    75  ARG75       0.0307
     45  CG        21.2320    7.1840   63.4480 C.3    75  ARG75       0.0489
     46  CD        21.4530    8.6900   63.4370 C.3    75  ARG75       0.2205
     47  NE        20.1970    9.4270   63.3110 N.pl3  75  ARG75      -0.0865
     48  CZ        20.0970   10.7370   63.4870 C.cat  75  ARG75       0.5346
     49  NH1       18.9230   11.3440   63.3620 N.pl3  75  ARG75       0.1354
     50  NH2       21.1780   11.4400   63.7920 N.pl3  75  ARG75       0.1354
     51  N         24.1740    8.0230   58.7860 N.3    98  TRP98      -0.1227
     52  CA        23.8580    9.1370   59.6730 C.3    98  TRP98       0.1737
     53  C         24.0490   10.5180   59.0820 C.2    98  TRP98       0.2596
     54  O         24.1300   11.4920   59.8150 O.2    98  TRP98      -0.2718
     55  CB        24.6550    9.0170   60.9740 C.3    98  TRP98       0.0564
     56  CG        26.0540    8.5010   60.7950 C.ar   98  TRP98       0.0003
     57  CD1       26.5400    7.2700   61.1750 C.ar   98  TRP98       0.0946
     58  CD2       27.1620    9.2140   60.2410 C.ar   98  TRP98       0.0152
     59  NE1       27.8840    7.1830   60.8940 N.ar   98  TRP98      -0.2442
     60  CE2       28.2920    8.3610   60.3200 C.ar   98  TRP98       0.0810
     61  CE3       27.3150   10.4970   59.6850 C.ar   98  TRP98       0.0012
     62  CZ2       29.5600    8.7490   59.8610 C.ar   98  TRP98       0.0191
     63  CZ3       28.5750   10.8840   59.2300 C.ar   98  TRP98       0.0001
     64  CH2       29.6820   10.0100   59.3220 C.ar   98  TRP98       0.0015
     65  N         24.1350   10.5800   57.7530 N.am   99  SER99      -0.1952
     66  CA        24.2540   11.8290   56.9900 C.3    99  SER99       0.1924
     67  C         23.7850   11.4420   55.5980 C.2    99  SER99       0.2314
     68  O         24.1620   10.3830   55.0860 O.2    99  SER99      -0.2863
     69  CB        25.6870   12.3650   56.9300 C.3    99  SER99       0.2116
     70  OG        25.7040   13.5760   56.1930 O.3    99  SER99      -0.2180
     71  N         34.7370   12.4100   60.0760 N.3   142  ILE142     -0.1245
     72  CA        33.3080   12.5590   59.8450 C.3   142  ILE142      0.1561
     73  C         32.8960   13.0490   58.4500 C.2   142  ILE142      0.2260
     74  O         32.4610   14.1920   58.2790 O.2   142  ILE142     -0.2867
     75  CB        32.6780   13.4610   60.9280 C.3   142  ILE142      0.0252
     76  CG1       33.2200   13.0450   62.3070 C.3   142  ILE142      0.0019
     77  CG2       31.1370   13.3290   60.9040 C.3   142  ILE142      0.0019
     78  CD1       32.7240   13.8850   63.4800 C.3   142  ILE142      0.0001
     79  N         30.6630   13.8990   55.6750 N.3   144  ARG144     -0.1245
     80  CA        29.2640   14.3120   55.8610 C.3   144  ARG144      0.1563
     81  C         28.7350   15.0900   54.6570 C.2   144  ARG144      0.2260
     82  O         29.5150   15.6300   53.8630 O.2   144  ARG144     -0.2867
     83  CB        29.1380   15.1600   57.1370 C.3   144  ARG144      0.0307
     84  CG        30.1510   16.2950   57.2380 C.3   144  ARG144      0.0489
     85  CD        30.4950   16.5930   58.6750 C.3   144  ARG144      0.2205
     86  NE        31.2520   17.8370   58.8230 N.pl3 144  ARG144     -0.0865
     87  CZ        32.5820   17.9120   58.8450 C.cat 144  ARG144      0.5346
     88  NH1       33.1830   19.0900   58.9900 N.pl3 144  ARG144      0.1354
     89  NH2       33.3100   16.8080   58.7000 N.pl3 144  ARG144      0.1354
     90  N         22.1070   16.9080   54.1100 N.3   147  GLU147     -0.1245
     91  CA        20.9830   16.7570   55.0510 C.3   147  GLU147      0.1567
     92  C         19.7260   17.4030   54.4520 C.2   147  GLU147      0.2260
     93  O         18.7830   17.7440   55.1700 O.2   147  GLU147     -0.2867
     94  CB        21.2700   17.3560   56.4500 C.3   147  GLU147      0.0388
     95  CG        22.6710   17.0760   57.0370 C.3   147  GLU147      0.1160
     96  CD        23.0300   15.5830   57.1630 C.2   147  GLU147      0.3649
     97  OE1       24.1310   15.3090   57.6730 O.co2 147  GLU147     -0.2457
     98  OE2       22.2410   14.6900   56.7590 O.co2 147  GLU147     -0.2457
     99  N         35.4310   20.5650   61.9590 N.3   166  ALA166     -0.1245
    100  CA        34.2100   21.3670   62.0530 C.3   166  ALA166      0.1562
    101  C         34.5940   22.7130   62.6890 C.2   166  ALA166      0.2260
    102  O         33.7770   23.6370   62.7880 O.2   166  ALA166     -0.2867
    103  CB        33.1930   20.6590   62.9440 C.3   166  ALA166      0.0290
    104  N         29.4180   23.2840   55.1840 N.3   196  GLU196     -0.1231
    105  CA        28.6880   22.1650   55.7710 C.3   196  GLU196      0.1699
    106  C         27.2200   22.2560   55.4200 C.2   196  GLU196      0.2592
    107  O         26.6880   23.3490   55.2020 O.2   196  GLU196     -0.2718
    108  CB        28.7960   22.1720   57.2960 C.3   196  GLU196      0.0402
    109  CG        30.1560   21.8360   57.8220 C.3   196  GLU196      0.1161
    110  CD        30.1380   21.5560   59.2880 C.2   196  GLU196      0.3649
    111  OE1       29.2250   22.0750   59.9740 O.co2 196  GLU196     -0.2457
    112  OE2       31.0360   20.8180   59.7550 O.co2 196  GLU196     -0.2457
    113  N         26.5750   21.1000   55.3530 N.am  197  GLU197     -0.1979
    114  CA        25.1400   21.0160   55.1180 C.3   197  GLU197      0.1602
    115  C         24.5140   21.9860   54.1250 C.2   197  GLU197      0.2287
    116  O         23.6160   22.7510   54.4800 O.2   197  GLU197     -0.2864
    117  CB        24.4400   21.1500   56.4730 C.3   197  GLU197      0.0415
    118  CG        25.0230   20.2010   57.5170 C.3   197  GLU197      0.1163
    119  CD        24.5130   20.4560   58.9180 C.2   197  GLU197      0.3649
    120  OE1       24.2040   21.6150   59.2540 O.co2 197  GLU197     -0.2457
    121  OE2       24.4260   19.4890   59.6920 O.co2 197  GLU197     -0.2457
    122  N         26.5150   26.1700   55.5560 N.3   212  ARG212     -0.1245
    123  CA        26.8390   26.5250   56.9370 C.3   212  ARG212      0.1563
    124  C         28.3630   26.5740   57.1410 C.2   212  ARG212      0.2260
    125  O         29.0630   25.5980   56.8810 O.2   212  ARG212     -0.2867
    126  CB        26.1900   25.4800   57.8850 C.3   212  ARG212      0.0307
    127  CG        26.7270   25.3790   59.3330 C.3   212  ARG212      0.0489
    128  CD        26.1610   24.1370   60.0290 C.3   212  ARG212      0.2205
    129  NE        26.6900   23.9120   61.3770 N.pl3 212  ARG212     -0.0865
    130  CZ        26.1130   23.1230   62.2850 C.cat 212  ARG212      0.5346
    131  NH1       26.6530   22.9620   63.4930 N.pl3 212  ARG212      0.1354
    132  NH2       24.9700   22.5040   61.9930 N.pl3 212  ARG212      0.1354
    133  N         30.5950   26.4600   59.7760 N.3   214  ASN214     -0.1240
    134  CA        30.5940   26.1460   61.1890 C.3   214  ASN214      0.1653
    135  C         31.7450   26.7860   61.9660 C.2   214  ASN214      0.2266
    136  O         31.5980   27.1900   63.1250 O.2   214  ASN214     -0.2867
    137  CB        30.6360   24.6300   61.3650 C.3   214  ASN214      0.1155
    138  CG        30.2260   24.2030   62.7480 C.2   214  ASN214      0.2627
    139  OD1       31.0550   23.7330   63.5350 O.2   214  ASN214     -0.2716
    140  ND2       28.9510   24.3650   63.0620 N.am  214  ASN214     -0.0877
    141  N         30.2480   26.6770   65.5380 N.3   266  ASN266     -0.1240
    142  CA        28.8610   26.3110   65.7610 C.3   266  ASN266      0.1653
    143  C         28.0260   26.8760   64.6320 C.2   266  ASN266      0.2266
    144  O         28.5060   27.6980   63.8490 O.2   266  ASN266     -0.2867
    145  CB        28.3610   26.8270   67.1160 C.3   266  ASN266      0.1155
    146  CG        27.2430   25.9630   67.6990 C.2   266  ASN266      0.2627
    147  OD1       26.7620   25.0050   67.0580 O.2   266  ASN266     -0.2716
    148  ND2       26.8140   26.3020   68.9170 N.am  266  ASN266     -0.0877
    149  N         18.2850   27.8920   68.7530 N.3   290  ARG290     -0.1245
    150  CA        17.4030   27.4150   67.6980 C.3   290  ARG290      0.1563
    151  C         15.9760   27.6120   68.1690 C.2   290  ARG290      0.2260
    152  O         15.2460   26.6720   68.4940 O.2   290  ARG290     -0.2867
    153  CB        17.7150   25.9460   67.4020 C.3   290  ARG290      0.0307
    154  CG        19.1180   25.7740   66.8420 C.3   290  ARG290      0.0489
    155  CD        19.6370   24.3410   66.9010 C.3   290  ARG290      0.2205
    156  NE        20.9300   24.2600   66.2290 N.pl3 290  ARG290     -0.0865
    157  CZ        21.5650   23.1320   65.9220 C.cat 290  ARG290      0.5346
    158  NH1       22.7470   23.1780   65.3020 N.pl3 290  ARG290      0.1354
    159  NH2       21.0360   21.9620   66.2450 N.pl3 290  ARG290      0.1354
    160  N         16.9300   22.8860   62.0940 N.3   324  TYR324     -0.1241
    161  CA        17.3990   22.9180   60.7030 C.3   324  TYR324      0.1605
    162  C         16.3210   23.4300   59.7350 C.2   324  TYR324      0.2264
    163  O         15.1280   23.3700   60.0160 O.2   324  TYR324     -0.2867
    164  CB        17.8390   21.5070   60.2570 C.3   324  TYR324      0.0534
    165  CG        19.2330   21.0940   60.6950 C.ar  324  TYR324     -0.0201
    166  CD1       19.8960   21.7610   61.7410 C.ar  324  TYR324     -0.0009
    167  CD2       19.9050   20.0460   60.0490 C.ar  324  TYR324     -0.0009
    168  CE1       21.1850   21.4000   62.1240 C.ar  324  TYR324      0.0417
    169  CE2       21.1990   19.6740   60.4250 C.ar  324  TYR324      0.0417
    170  CZ        21.8260   20.3610   61.4620 C.ar  324  TYR324      0.1957
    171  OH        23.1030   20.0260   61.8140 O.3   324  TYR324     -0.2866
@<TRIPOS>BOND
     1    82    81    2
     2    90    91    1
     3   115   116    2
     4   115   114    1
     5    92    91    1
     6    92    93    2
     7    81    80    1
     8    91    94    1
     9    68    67    2
    10   114   113    1
    11   114   117    1
    12   104   105    1
    13   107   106    2
    14   113   106   am
    15   106   105    1
    16   122   123    1
    17    67    66    1
    18    79    80    1
    19   105   108    1
    20    80    83    1
    21    70    69    1
    22    94    95    1
    23   117   118    1
    24    98    96   ar
    25   125   124    2
    26    69    66    1
    27   123   124    1
    28   123   126    1
    29    66    65    1
    30    95    96    1
    31    83    84    1
    32    96    97   ar
    33    84    85    1
    34   108   109    1
    35   118   119    1
    36    65    53   am
    37   109   110    1
    38   126   127    1
    39    15    14    2
    40    74    73    2
    41    73    72    1
    42    85    86    1
    43    89    87    1
    44    51    52    1
    45    86    87    2
    46    87    88    1
    47   119   120   ar
    48   119   121   ar
    49    14    13    1
    50    53    52    1
    51    53    54    2
    52    63    64   ar
    53    63    61   ar
    54   110   112   ar
    55   110   111   ar
    56    64    62   ar
    57   127   128    1
    58    52    55    1
    59    61    58   ar
    60   162   163    2
    61   162   161    1
    62   133   134    1
    63    72    71    1
    64    72    75    1
    65    62    60   ar
    66    16    13    1
    67    16    17    1
    68    43    42    2
    69   128   129    1
    70   167   169   ar
    71   167   165   ar
    72    13    12    1
    73    58    60   ar
    74    58    56   ar
    75   164   165    1
    76   164   161    1
    77    60    59   ar
    78   169   170   ar
    79    42    41    1
    80   165   166   ar
    81   161   160    1
    82    56    55    1
    83    56    57   ar
    84    17    18    1
    85    59    57   ar
    86    77    75    1
    87    75    76    1
    88     4     3    2
    89   134   137    1
    90   134   135    1
    91   137   138    1
    92   129   130    2
    93    12     3   am
    94   170   171    1
    95   170   168   ar
    96   166   168   ar
    97     3     2    1
    98    41    44    1
    99    41    40    1
   100    99   100    1
   101   135   136    2
   102   132   130    1
   103    44    45    1
   104   100   101    1
   105   100   103    1
   106    18    19   ar
   107    18    20   ar
   108   130   131    1
   109    76    78    1
   110   101   102    2
   111   138   140   am
   112   138   139    2
   113    35    34    1
   114    35    36    1
   115     2     1    1
   116     2     5    1
   117    47    46    1
   118    47    48    2
   119    49    48    1
   120    34    33    1
   121    46    45    1
   122    48    50    1
   123   144   143    2
   124    10     9    1
   125    33    30    1
   126    24    23    2
   127    36    37    2
   128     5     6    1
   129    30    31    1
   130    30    29    1
   131   143   142    1
   132    39    37    1
   133     9     8    2
   134     9    11    1
   135    37    38    1
   136     8     7    1
   137    23    29   am
   138    23    22    1
   139    31    32    2
   140   158   157    1
   141     6     7    1
   142   141   142    1
   143    25    22    1
   144    25    26    1
   145   142   145    1
   146    27    26   ar
   147   157   156    2
   148   157   159    1
   149    22    21    1
   150    26    28   ar
   151   156   155    1
   152   154   155    1
   153   154   153    1
   154   147   146    2
   155   145   146    1
   156   153   150    1
   157   150   151    1
   158   150   149    1
   159   146   148   am
   160   151   152    2
