@<TRIPOS>MOLECULE
tmp/1f8dA01.pdb
 171 160 0 0 0
SMALL
GASTEIGER

@<TRIPOS>ATOM
      1  N         15.5430   13.1900   63.0920 N.3    37  ARG37      -0.1231
      2  CA        16.1770   14.5140   63.0750 C.3    37  ARG37       0.1694
      3  C         16.7800   14.6620   61.6600 C.2    37  ARG37       0.2591
      4  O         16.8270   13.6890   60.8910 O.2    37  ARG37      -0.2718
      5  CB        17.2390   14.7080   64.1920 C.3    37  ARG37       0.0321
      6  CG        16.7080   15.5230   65.4020 C.3    37  ARG37       0.0489
      7  CD        17.7510   16.4900   65.9910 C.3    37  ARG37       0.2205
      8  NE        18.0270   17.5380   65.0240 N.pl3  37  ARG37      -0.0865
      9  CZ        19.1910   18.1600   64.8760 C.cat  37  ARG37       0.5346
     10  NH1       19.3040   19.0980   63.9420 N.pl3  37  ARG37       0.1354
     11  NH2       20.2300   17.8610   65.6570 N.pl3  37  ARG37       0.1354
     12  N         17.2160   15.8740   61.3260 N.am   38  GLU38      -0.1979
     13  CA        17.7950   16.1870   60.0210 C.3    38  GLU38       0.1602
     14  C         16.8110   15.8310   58.9030 C.2    38  GLU38       0.2287
     15  O         17.1540   15.1160   57.9610 O.2    38  GLU38      -0.2864
     16  CB        19.1340   15.4540   59.8260 C.3    38  GLU38       0.0415
     17  CG        20.2520   15.9320   60.7610 C.3    38  GLU38       0.1163
     18  CD        20.2540   15.2220   62.1210 C.2    38  GLU38       0.3649
     19  OE1       19.8500   14.0350   62.1840 O.co2  38  GLU38      -0.2457
     20  OE2       20.6570   15.8400   63.1390 O.co2  38  GLU38      -0.2457
     21  N         24.2420   12.0970   67.3240 N.3    70  ASP70      -0.1225
     22  CA        24.0920   12.1940   65.8780 C.3    70  ASP70       0.1805
     23  C         24.4190   11.0020   64.9950 C.2    70  ASP70       0.2597
     24  O         23.8020   10.8210   63.9580 O.2    70  ASP70      -0.2718
     25  CB        24.9340   13.3520   65.3670 C.3    70  ASP70       0.1424
     26  CG        24.6200   14.6450   66.0530 C.2    70  ASP70       0.3668
     27  OD1       23.4310   14.9440   66.2910 O.co2  70  ASP70      -0.2456
     28  OD2       25.5740   15.3830   66.3380 O.co2  70  ASP70      -0.2456
     29  N         25.4060   10.2050   65.3890 N.am   71  ARG71      -0.1979
     30  CA        25.8410    9.1040   64.5480 C.3    71  ARG71       0.1597
     31  C         25.8680    7.7760   65.2710 C.2    71  ARG71       0.2287
     32  O         26.5880    7.6120   66.2550 O.2    71  ARG71      -0.2864
     33  CB        27.2370    9.4300   63.9970 C.3    71  ARG71       0.0334
     34  CG        27.3530   10.7920   63.2780 C.3    71  ARG71       0.0492
     35  CD        28.8170   11.1200   62.9070 C.3    71  ARG71       0.2205
     36  NE        29.6690   11.2060   64.0980 N.pl3  71  ARG71      -0.0865
     37  CZ        29.6400   12.2070   64.9740 C.cat  71  ARG71       0.5346
     38  NH1       30.4450   12.1930   66.0250 N.pl3  71  ARG71       0.1354
     39  NH2       28.8070   13.2250   64.8070 N.pl3  71  ARG71       0.1354
     40  N         20.8480    4.4330   62.6590 N.3    75  ARG75      -0.1245
     41  CA        20.2490    5.4780   61.8620 C.3    75  ARG75       0.1563
     42  C         20.0960    5.0380   60.4070 C.2    75  ARG75       0.2260
     43  O         20.8090    4.1480   59.9240 O.2    75  ARG75      -0.2867
     44  CB        21.1110    6.7360   61.9500 C.3    75  ARG75       0.0307
     45  CG        21.2270    7.2930   63.3640 C.3    75  ARG75       0.0489
     46  CD        21.4480    8.8020   63.3260 C.3    75  ARG75       0.2205
     47  NE        20.1900    9.5320   63.2000 N.pl3  75  ARG75      -0.0865
     48  CZ        20.0800   10.8550   63.3200 C.cat  75  ARG75       0.5346
     49  NH1       18.8860   11.4490   63.1950 N.pl3  75  ARG75       0.1354
     50  NH2       21.1690   11.5880   63.5540 N.pl3  75  ARG75       0.1354
     51  N         24.1580    7.9690   58.7610 N.3    98  TRP98      -0.1227
     52  CA        23.8560    9.1060   59.6220 C.3    98  TRP98       0.1737
     53  C         24.0320   10.4820   59.0040 C.2    98  TRP98       0.2596
     54  O         24.0850   11.4810   59.7100 O.2    98  TRP98      -0.2718
     55  CB        24.6780    9.0170   60.9090 C.3    98  TRP98       0.0564
     56  CG        26.0800    8.4810   60.7330 C.ar   98  TRP98       0.0003
     57  CD1       26.5600    7.2610   61.1600 C.ar   98  TRP98       0.0946
     58  CD2       27.2040    9.1770   60.1700 C.ar   98  TRP98       0.0152
     59  NE1       27.9090    7.1650   60.9040 N.ar   98  TRP98      -0.2442
     60  CE2       28.3320    8.3220   60.2970 C.ar   98  TRP98       0.0810
     61  CE3       27.3720   10.4390   59.5740 C.ar   98  TRP98       0.0012
     62  CZ2       29.6120    8.6920   59.8470 C.ar   98  TRP98       0.0191
     63  CZ3       28.6430   10.8110   59.1280 C.ar   98  TRP98       0.0001
     64  CH2       29.7490    9.9340   59.2680 C.ar   98  TRP98       0.0015
     65  N         24.1350   10.5200   57.6770 N.am   99  SER99      -0.1952
     66  CA        24.2420   11.7740   56.9270 C.3    99  SER99       0.1924
     67  C         23.7550   11.4190   55.5350 C.2    99  SER99       0.2314
     68  O         24.1370   10.3820   54.9880 O.2    99  SER99      -0.2863
     69  CB        25.6740   12.3030   56.8660 C.3    99  SER99       0.2116
     70  OG        25.6870   13.5230   56.1500 O.3    99  SER99      -0.2180
     71  N         34.7830   12.4330   59.9880 N.3   142  ILE142     -0.1245
     72  CA        33.3530   12.5840   59.7570 C.3   142  ILE142      0.1561
     73  C         32.9530   13.0620   58.3610 C.2   142  ILE142      0.2260
     74  O         32.5600   14.2290   58.1710 O.2   142  ILE142     -0.2867
     75  CB        32.7040   13.5140   60.8130 C.3   142  ILE142      0.0252
     76  CG1       33.2140   13.1400   62.2080 C.3   142  ILE142      0.0019
     77  CG2       31.1660   13.3620   60.7810 C.3   142  ILE142      0.0019
     78  CD1       32.6220   13.9640   63.3490 C.3   142  ILE142      0.0001
     79  N         30.7150   13.9110   55.6290 N.3   144  ARG144     -0.1245
     80  CA        29.3270   14.3520   55.8180 C.3   144  ARG144      0.1563
     81  C         28.7680   15.1130   54.6080 C.2   144  ARG144      0.2260
     82  O         29.5200   15.6630   53.7980 O.2   144  ARG144     -0.2867
     83  CB        29.2340   15.2160   57.0840 C.3   144  ARG144      0.0307
     84  CG        30.2240   16.3770   57.1480 C.3   144  ARG144      0.0489
     85  CD        30.5460   16.6980   58.5820 C.3   144  ARG144      0.2205
     86  NE        31.3460   17.9130   58.7510 N.pl3 144  ARG144     -0.0865
     87  CZ        32.6810   17.9490   58.7970 C.cat 144  ARG144      0.5346
     88  NH1       33.3160   19.1050   58.9640 N.pl3 144  ARG144      0.1354
     89  NH2       33.3840   16.8330   58.6480 N.pl3 144  ARG144      0.1354
     90  N         22.0720   16.8640   54.1030 N.3   147  GLU147     -0.1245
     91  CA        20.9450   16.7370   55.0370 C.3   147  GLU147      0.1567
     92  C         19.6870   17.3930   54.4310 C.2   147  GLU147      0.2260
     93  O         18.7400   17.7710   55.1460 O.2   147  GLU147     -0.2867
     94  CB        21.2400   17.3470   56.4250 C.3   147  GLU147      0.0388
     95  CG        22.6150   16.9990   57.0460 C.3   147  GLU147      0.1160
     96  CD        22.9200   15.4830   57.1650 C.2   147  GLU147      0.3649
     97  OE1       23.9670   15.1640   57.7610 O.co2 147  GLU147     -0.2457
     98  OE2       22.1460   14.6210   56.6770 O.co2 147  GLU147     -0.2457
     99  N         35.6740   20.6620   61.8180 N.3   166  ALA166     -0.1245
    100  CA        34.4440   21.4500   61.9070 C.3   166  ALA166      0.1562
    101  C         34.7950   22.8010   62.5470 C.2   166  ALA166      0.2260
    102  O         33.9440   23.6910   62.6950 O.2   166  ALA166     -0.2867
    103  CB        33.4280   20.7210   62.7830 C.3   166  ALA166      0.0290
    104  N         29.3960   23.2460   55.2220 N.3   196  GLU196     -0.1231
    105  CA        28.6900   22.1270   55.8250 C.3   196  GLU196      0.1699
    106  C         27.2240   22.2320   55.4830 C.2   196  GLU196      0.2592
    107  O         26.6990   23.3350   55.3170 O.2   196  GLU196     -0.2718
    108  CB        28.8140   22.1450   57.3480 C.3   196  GLU196      0.0402
    109  CG        30.1520   21.6780   57.8630 C.3   196  GLU196      0.1161
    110  CD        30.1510   21.4890   59.3560 C.2   196  GLU196      0.3649
    111  OE1       29.2690   22.0930   60.0210 O.co2 196  GLU196     -0.2457
    112  OE2       31.0330   20.7360   59.8540 O.co2 196  GLU196     -0.2457
    113  N         26.5800   21.0770   55.3600 N.am  197  GLU197     -0.1979
    114  CA        25.1390   21.0030   55.1360 C.3   197  GLU197      0.1602
    115  C         24.5140   21.9590   54.1290 C.2   197  GLU197      0.2287
    116  O         23.6410   22.7410   54.4820 O.2   197  GLU197     -0.2864
    117  CB        24.4610   21.1760   56.4960 C.3   197  GLU197      0.0415
    118  CG        24.9500   20.1430   57.5000 C.3   197  GLU197      0.1163
    119  CD        24.5050   20.4210   58.9140 C.2   197  GLU197      0.3649
    120  OE1       24.3100   21.6050   59.2540 O.co2 197  GLU197     -0.2457
    121  OE2       24.3550   19.4510   59.6860 O.co2 197  GLU197     -0.2457
    122  N         26.4600   26.1520   55.5880 N.3   212  ARG212     -0.1245
    123  CA        26.8070   26.5060   56.9620 C.3   212  ARG212      0.1563
    124  C         28.3310   26.5660   57.1440 C.2   212  ARG212      0.2260
    125  O         29.0240   25.5890   56.8970 O.2   212  ARG212     -0.2867
    126  CB        26.2090   25.4380   57.9050 C.3   212  ARG212      0.0307
    127  CG        26.7560   25.3640   59.3360 C.3   212  ARG212      0.0489
    128  CD        26.1730   24.1280   60.0180 C.3   212  ARG212      0.2205
    129  NE        26.6790   23.9260   61.3700 N.pl3 212  ARG212     -0.0865
    130  CZ        26.1010   23.1350   62.2720 C.cat 212  ARG212      0.5346
    131  NH1       26.6270   23.0020   63.4890 N.pl3 212  ARG212      0.1354
    132  NH2       24.9880   22.4750   61.9620 N.pl3 212  ARG212      0.1354
    133  N         30.6120   26.4470   59.7460 N.3   214  ASN214     -0.1240
    134  CA        30.6250   26.1320   61.1550 C.3   214  ASN214      0.1653
    135  C         31.7940   26.7490   61.9290 C.2   214  ASN214      0.2266
    136  O         31.6890   27.0780   63.1200 O.2   214  ASN214     -0.2867
    137  CB        30.6720   24.6240   61.3290 C.3   214  ASN214      0.1155
    138  CG        30.3480   24.2100   62.7190 C.2   214  ASN214      0.2627
    139  OD1       31.2320   23.7960   63.4810 O.2   214  ASN214     -0.2716
    140  ND2       29.0790   24.3280   63.0790 N.am  214  ASN214     -0.0877
    141  N         30.2320   26.6670   65.5510 N.3   266  ASN266     -0.1240
    142  CA        28.8460   26.2890   65.7840 C.3   266  ASN266      0.1653
    143  C         28.0150   26.8230   64.6300 C.2   266  ASN266      0.2266
    144  O         28.5090   27.5990   63.8220 O.2   266  ASN266     -0.2867
    145  CB        28.3480   26.8440   67.1220 C.3   266  ASN266      0.1155
    146  CG        27.2420   25.9850   67.7380 C.2   266  ASN266      0.2627
    147  OD1       26.7190   25.0420   67.1070 O.2   266  ASN266     -0.2716
    148  ND2       26.8730   26.3120   68.9730 N.am  266  ASN266     -0.0877
    149  N         18.2470   27.8130   68.7160 N.3   290  ARG290     -0.1245
    150  CA        17.3500   27.3770   67.6470 C.3   290  ARG290      0.1563
    151  C         15.9220   27.5680   68.1120 C.2   290  ARG290      0.2260
    152  O         15.1720   26.6200   68.3760 O.2   290  ARG290     -0.2867
    153  CB        17.6430   25.9180   67.2930 C.3   290  ARG290      0.0307
    154  CG        19.0570   25.7510   66.7790 C.3   290  ARG290      0.0489
    155  CD        19.5780   24.3360   66.8970 C.3   290  ARG290      0.2205
    156  NE        20.8660   24.2410   66.2210 N.pl3 290  ARG290     -0.0865
    157  CZ        21.4700   23.1010   65.8990 C.cat 290  ARG290      0.5346
    158  NH1       22.6490   23.1280   65.2760 N.pl3 290  ARG290      0.1354
    159  NH2       20.9140   21.9420   66.2110 N.pl3 290  ARG290      0.1354
    160  N         16.9010   22.8380   62.0690 N.3   324  TYR324     -0.1241
    161  CA        17.3830   22.8790   60.6920 C.3   324  TYR324      0.1605
    162  C         16.3100   23.3880   59.7270 C.2   324  TYR324      0.2264
    163  O         15.1160   23.3080   59.9930 O.2   324  TYR324     -0.2867
    164  CB        17.8280   21.4810   60.2400 C.3   324  TYR324      0.0534
    165  CG        19.2290   21.0850   60.6760 C.ar  324  TYR324     -0.0201
    166  CD1       19.9030   21.7930   61.6900 C.ar  324  TYR324     -0.0009
    167  CD2       19.8970   20.0100   60.0640 C.ar  324  TYR324     -0.0009
    168  CE1       21.1990   21.4450   62.0720 C.ar  324  TYR324      0.0417
    169  CE2       21.2060   19.6490   60.4440 C.ar  324  TYR324      0.0417
    170  CZ        21.8400   20.3750   61.4440 C.ar  324  TYR324      0.1957
    171  OH        23.1120   20.0450   61.8000 O.3   324  TYR324     -0.2866
@<TRIPOS>BOND
     1    82    81    2
     2    90    91    1
     3   115   116    2
     4   115   114    1
     5    92    91    1
     6    92    93    2
     7    81    80    1
     8    68    67    2
     9    91    94    1
    10   114   113    1
    11   114   117    1
    12   104   105    1
    13   107   106    2
    14   113   106   am
    15   106   105    1
    16    67    66    1
    17   122   123    1
    18    79    80    1
    19    80    83    1
    20   105   108    1
    21    70    69    1
    22    94    95    1
    23   117   118    1
    24    98    96   ar
    25    69    66    1
    26   125   124    2
    27    66    65    1
    28   123   124    1
    29   123   126    1
    30    95    96    1
    31    83    84    1
    32    84    85    1
    33    96    97   ar
    34   108   109    1
    35   118   119    1
    36    65    53   am
    37   109   110    1
    38   126   127    1
    39    15    14    2
    40    74    73    2
    41    73    72    1
    42    85    86    1
    43    89    87    1
    44    86    87    2
    45    51    52    1
    46    87    88    1
    47    14    13    1
    48   119   120   ar
    49   119   121   ar
    50    53    52    1
    51    53    54    2
    52    63    64   ar
    53    63    61   ar
    54    64    62   ar
    55   127   128    1
    56   110   112   ar
    57   110   111   ar
    58    61    58   ar
    59    52    55    1
    60   162   163    2
    61   162   161    1
    62   133   134    1
    63    72    71    1
    64    72    75    1
    65    16    13    1
    66    16    17    1
    67    62    60   ar
    68    43    42    2
    69   128   129    1
    70    13    12    1
    71   167   169   ar
    72   167   165   ar
    73    58    60   ar
    74    58    56   ar
    75   164   165    1
    76   164   161    1
    77    60    59   ar
    78    42    41    1
    79   169   170   ar
    80   165   166   ar
    81   161   160    1
    82    56    55    1
    83    56    57   ar
    84    17    18    1
    85    77    75    1
    86    75    76    1
    87     4     3    2
    88    59    57   ar
    89   134   137    1
    90   134   135    1
    91    12     3   am
    92   137   138    1
    93   129   130    2
    94   170   171    1
    95   170   168   ar
    96     3     2    1
    97   166   168   ar
    98    99   100    1
    99    41    44    1
   100    41    40    1
   101   100   101    1
   102   100   103    1
   103   135   136    2
   104    44    45    1
   105   132   130    1
   106    18    19   ar
   107    18    20   ar
   108    76    78    1
   109   130   131    1
   110   101   102    2
   111   138   140   am
   112   138   139    2
   113    35    34    1
   114    35    36    1
   115     2     1    1
   116     2     5    1
   117    49    48    1
   118    47    48    2
   119    47    46    1
   120    34    33    1
   121    48    50    1
   122    46    45    1
   123   144   143    2
   124    10     9    1
   125    24    23    2
   126    33    30    1
   127    36    37    2
   128     5     6    1
   129    30    31    1
   130    30    29    1
   131   143   142    1
   132    39    37    1
   133     9     8    2
   134     9    11    1
   135    37    38    1
   136    23    29   am
   137    23    22    1
   138     8     7    1
   139    31    32    2
   140   158   157    1
   141    25    22    1
   142    25    26    1
   143     6     7    1
   144   141   142    1
   145   142   145    1
   146    22    21    1
   147   157   159    1
   148   157   156    2
   149    26    27   ar
   150    26    28   ar
   151   156   155    1
   152   154   155    1
   153   154   153    1
   154   147   146    2
   155   145   146    1
   156   153   150    1
   157   150   151    1
   158   150   149    1
   159   146   148   am
   160   151   152    2
