@<TRIPOS>MOLECULE
tmp/1f8hA00.pdb
 120 113 0 0 0
SMALL
GASTEIGER

@<TRIPOS>ATOM
      1  N         -3.7980    4.1800   -0.3350 N.3    28  GLY28      -0.1225
      2  CA        -3.5590    2.7150   -0.4190 C.3    28  GLY28       0.1811
      3  C         -4.5900    2.0150    0.4620 C.2    28  GLY28       0.2280
      4  O         -4.9440    0.8760    0.2450 O.2    28  GLY28      -0.2866
      5  N         -5.2380   -0.6360   -1.6300 N.3    32  LYS32      -0.1245
      6  CA        -4.6630   -1.9010   -1.0940 C.3    32  LYS32       0.1561
      7  C         -5.7200   -3.0100   -1.0970 C.2    32  LYS32       0.2260
      8  O         -5.4700   -4.0880   -1.5950 O.2    32  LYS32      -0.2867
      9  CB        -4.2080   -1.5800    0.3300 C.3    32  LYS32       0.0271
     10  CG        -3.7890   -2.8720    1.0330 C.3    32  LYS32       0.0035
     11  CD        -2.6670   -2.5720    2.0280 C.3    32  LYS32       0.0206
     12  CE        -3.0870   -3.0300    3.4260 C.3    32  LYS32       0.1093
     13  NZ        -2.3240   -2.1590    4.3620 N.3    32  LYS32      -0.1314
     14  N         -6.5550   -3.9690   -4.5610 N.3    35  LEU35      -0.1231
     15  CA        -5.5260   -4.8240   -5.2060 C.3    35  LEU35       0.1693
     16  C         -5.4520   -6.1700   -4.4940 C.2    35  LEU35       0.2591
     17  O         -5.1720   -7.1890   -5.0950 O.2    35  LEU35      -0.2718
     18  CB        -4.2290   -4.0450   -5.0310 C.3    35  LEU35       0.0284
     19  CG        -4.4190   -2.6520   -5.6190 C.3    35  LEU35       0.0019
     20  CD1       -3.2270   -1.7700   -5.2610 C.3    35  LEU35       0.0001
     21  CD2       -4.5280   -2.7680   -7.1310 C.3    35  LEU35       0.0001
     22  N         -5.7140   -6.1830   -3.2190 N.am   36  LEU36      -0.1980
     23  CA        -5.6740   -7.4610   -2.4680 C.3    36  LEU36       0.1596
     24  C         -6.8610   -8.3210   -2.8790 C.2    36  LEU36       0.2287
     25  O         -6.9450   -9.4880   -2.5500 O.2    36  LEU36      -0.2864
     26  CB        -5.8040   -7.0660   -1.0010 C.3    36  LEU36       0.0297
     27  CG        -4.5260   -6.3780   -0.5370 C.3    36  LEU36       0.0022
     28  CD1       -4.8150   -5.6090    0.7540 C.3    36  LEU36       0.0001
     29  CD2       -3.4540   -7.4370   -0.2780 C.3    36  LEU36       0.0001
     30  N          1.0520   -9.4670   -2.4680 N.3    42  VAL42      -0.1231
     31  CA         1.4040   -8.0340   -2.3150 C.3    42  VAL42       0.1692
     32  C          2.5800   -7.7060   -3.2340 C.2    42  VAL42       0.2592
     33  O          2.9560   -6.5620   -3.3920 O.2    42  VAL42      -0.2718
     34  CB         1.7730   -7.8800   -0.8310 C.3    42  VAL42       0.0266
     35  CG1        2.9830   -6.9530   -0.6650 C.3    42  VAL42       0.0020
     36  CG2        0.5770   -7.2940   -0.0820 C.3    42  VAL42       0.0020
     37  N          3.1570   -8.7000   -3.8520 N.am   43  ASP43      -0.1974
     38  CA         4.2920   -8.4310   -4.7610 C.3    43  ASP43       0.1709
     39  C          3.7490   -7.8200   -6.0440 C.2    43  ASP43       0.2293
     40  O          4.3970   -7.0250   -6.6940 O.2    43  ASP43      -0.2864
     41  CB         4.9340   -9.7930   -5.0270 C.3    43  ASP43       0.1436
     42  CG         5.5020  -10.3530   -3.7210 C.2    43  ASP43       0.3671
     43  OD1        4.7510  -10.4520   -2.7670 O.co2  43  ASP43      -0.2456
     44  OD2        6.6800  -10.6710   -3.7000 O.co2  43  ASP43      -0.2456
     45  N          0.6720   -6.2220   -6.1330 N.3    45  LEU45      -0.1231
     46  CA         0.0170   -4.9690   -5.6960 C.3    45  LEU45       0.1693
     47  C          1.0780   -4.0320   -5.1410 C.2    45  LEU45       0.2593
     48  O          0.9580   -2.8250   -5.2070 O.2    45  LEU45      -0.2718
     49  CB        -0.9400   -5.3820   -4.5850 C.3    45  LEU45       0.0284
     50  CG        -1.6790   -6.6700   -4.9560 C.3    45  LEU45       0.0019
     51  CD1       -2.7080   -6.9810   -3.8700 C.3    45  LEU45       0.0001
     52  CD2       -2.3860   -6.4950   -6.3030 C.3    45  LEU45       0.0001
     53  N          2.1300   -4.5860   -4.6080 N.am   46  GLY46      -0.1942
     54  CA         3.2140   -3.7290   -4.0650 C.3    46  GLY46       0.2014
     55  C          3.9350   -3.1100   -5.2480 C.2    46  GLY46       0.2638
     56  O          4.5090   -2.0410   -5.1640 O.2    46  GLY46      -0.2714
     57  N          3.8930   -3.7870   -6.3580 N.am   47  ARG47      -0.1977
     58  CA         4.5530   -3.2720   -7.5800 C.3    47  ARG47       0.1597
     59  C          3.5220   -2.6520   -8.5250 C.2    47  ARG47       0.2287
     60  O          3.8170   -1.7210   -9.2440 O.2    47  ARG47      -0.2864
     61  CB         5.1980   -4.4940   -8.2160 C.3    47  ARG47       0.0334
     62  CG         5.8030   -4.1090   -9.5660 C.3    47  ARG47       0.0492
     63  CD         6.3080   -5.3670  -10.2710 C.3    47  ARG47       0.2205
     64  NE         7.0470   -6.1250   -9.2220 N.pl3  47  ARG47      -0.0865
     65  CZ         7.1240   -7.4270   -9.2880 C.cat  47  ARG47       0.5346
     66  NH1        6.7560   -8.0520  -10.3730 N.pl3  47  ARG47       0.1354
     67  NH2        7.5670   -8.1060   -8.2640 N.pl3  47  ARG47       0.1354
     68  N          0.8620   -1.0160   -7.6240 N.3    49  TRP49      -0.1227
     69  CA         0.5470    0.3200   -7.0560 C.3    49  TRP49       0.1737
     70  C          1.6630    1.2910   -7.4390 C.2    49  TRP49       0.2595
     71  O          1.4180    2.3720   -7.9230 O.2    49  TRP49      -0.2718
     72  CB         0.5170    0.1400   -5.5310 C.3    49  TRP49       0.0564
     73  CG         0.7810    1.4660   -4.8820 C.ar   49  TRP49       0.0003
     74  CD1        1.9960    2.0540   -4.7960 C.ar   49  TRP49       0.0946
     75  CD2       -0.1570    2.3820   -4.2530 C.ar   49  TRP49       0.0152
     76  NE1        1.8610    3.2760   -4.1790 N.ar   49  TRP49      -0.2442
     77  CE2        0.5560    3.5200   -3.8090 C.ar   49  TRP49       0.0810
     78  CE3       -1.5430    2.3370   -4.0270 C.ar   49  TRP49       0.0012
     79  CZ2       -0.0840    4.5740   -3.1630 C.ar   49  TRP49       0.0191
     80  CZ3       -2.1880    3.4010   -3.3730 C.ar   49  TRP49       0.0001
     81  CH2       -1.4580    4.5110   -2.9430 C.ar   49  TRP49       0.0015
     82  N          2.8910    0.9170   -7.1960 N.am   50  GLU50      -0.1979
     83  CA         4.0170    1.8350   -7.5180 C.3    50  GLU50       0.1602
     84  C          3.9120    2.3060   -8.9630 C.2    50  GLU50       0.2287
     85  O          3.8310    3.4880   -9.2340 O.2    50  GLU50      -0.2864
     86  CB         5.2820    1.0130   -7.3010 C.3    50  GLU50       0.0415
     87  CG         5.5550    0.8810   -5.8030 C.3    50  GLU50       0.1163
     88  CD         6.6680    1.8490   -5.3970 C.2    50  GLU50       0.3649
     89  OE1        6.8010    2.8730   -6.0450 O.co2  50  GLU50      -0.2457
     90  OE2        7.3690    1.5480   -4.4440 O.co2  50  GLU50      -0.2457
     91  N          1.1100    4.4780   -8.9850 N.3    53  ASP53      -0.1239
     92  CA         1.2920    5.7790   -8.2820 C.3    53  ASP53       0.1674
     93  C          2.0720    6.7340   -9.1890 C.2    53  ASP53       0.2266
     94  O          3.2850    6.7330   -9.2100 O.2    53  ASP53      -0.2867
     95  CB         2.1020    5.4370   -7.0310 C.3    53  ASP53       0.1410
     96  CG         1.3650    5.9510   -5.7930 C.2    53  ASP53       0.3668
     97  OD1        0.2700    5.4770   -5.5410 O.co2  53  ASP53      -0.2456
     98  OD2        1.9080    6.8110   -5.1200 O.co2  53  ASP53      -0.2456
     99  N          3.3510    9.4050   -6.6160 N.3    56  HIS56      -0.1241
    100  CA         4.0470    8.8970   -5.3960 C.3    56  HIS56       0.1621
    101  C          3.5590    9.6540   -4.1580 C.2    56  HIS56       0.2264
    102  O          4.3390   10.0650   -3.3220 O.2    56  HIS56      -0.2867
    103  CB         5.5380    9.1660   -5.6310 C.3    56  HIS56       0.0745
    104  CG         5.9910    8.4640   -6.8810 C.ar   56  HIS56       0.0817
    105  ND1        7.2220    8.7160   -7.4670 N.ar   56  HIS56      -0.2268
    106  CD2        5.3930    7.5100   -7.6620 C.ar   56  HIS56       0.1154
    107  CE1        7.3250    7.9250   -8.5500 C.ar   56  HIS56       0.1986
    108  NE2        6.2360    7.1690   -8.7160 N.ar   56  HIS56      -0.2212
    109  N          1.2030    8.3280   -2.1400 N.3    58  GLY58      -0.1225
    110  CA         0.5590    7.3290   -1.2490 C.3    58  GLY58       0.1811
    111  C         -0.9190    7.1950   -1.6240 C.2    58  GLY58       0.2280
    112  O         -1.7360    6.8000   -0.8160 O.2    58  GLY58      -0.2866
    113  N          8.4600   -3.6010  -12.7610 N.3    83  MET83      -0.1245
    114  CA         8.4880   -2.4650  -11.7950 C.3    83  MET83       0.1570
    115  C          8.8930   -1.1780  -12.4980 C.2    83  MET83       0.2261
    116  O          9.3230   -0.2310  -11.8700 O.2    83  MET83      -0.2867
    117  CB         9.5600   -2.8150  -10.7760 C.3    83  MET83       0.0387
    118  CG         9.3340   -4.2270  -10.2350 C.3    83  MET83       0.0595
    119  SD        10.9340   -5.0030   -9.8960 S.3    83  MET83      -0.1393
    120  CE        11.2680   -5.5840  -11.5770 C.3    83  MET83       0.0692
@<TRIPOS>BOND
     1   113   114    1
     2   115   116    2
     3   115   114    1
     4   114   117    1
     5   120   119    1
     6   117   118    1
     7    66    65    1
     8    63    62    1
     9    63    64    1
    10   118   119    1
    11    62    61    1
    12    65    64    2
    13    65    67    1
    14    60    59    2
    15    85    84    2
    16    94    93    2
    17    93    92    1
    18    91    92    1
    19    84    83    1
    20   108   107   ar
    21   108   106   ar
    22   107   105   ar
    23    59    58    1
    24    92    95    1
    25    61    58    1
    26    71    70    2
    27   106   104   ar
    28    68    69    1
    29    58    57    1
    30    83    86    1
    31    83    82    1
    32   105   104   ar
    33    70    82   am
    34    70    69    1
    35    86    87    1
    36    21    19    1
    37    69    72    1
    38    95    96    1
    39   104   103    1
    40    40    39    2
    41    99   100    1
    42    57    55   am
    43    52    50    1
    44    45    46    1
    45    89    88   ar
    46    39    38    1
    47    87    88    1
    48    96    97   ar
    49    96    98   ar
    50    46    47    1
    51    46    49    1
    52   103   100    1
    53    19    20    1
    54    19    18    1
    55    72    73    1
    56    88    90   ar
    57   100   101    1
    58    55    56    2
    59    55    54    1
    60    48    47    2
    61    15    18    1
    62    15    14    1
    63    15    16    1
    64    47    53   am
    65    17    16    2
    66    41    38    1
    67    41    42    1
    68    50    49    1
    69    50    51    1
    70    73    74   ar
    71    73    75   ar
    72    74    76   ar
    73    38    37    1
    74    53    54    1
    75    16    22   am
    76    75    78   ar
    77    75    77   ar
    78    76    77   ar
    79   101   102    2
    80    78    80   ar
    81    37    32   am
    82    77    79   ar
    83    42    44   ar
    84    42    43   ar
    85    33    32    2
    86    80    81   ar
    87    32    31    1
    88    22    23    1
    89    79    81   ar
    90    24    25    2
    91    24    23    1
    92    30    31    1
    93    23    26    1
    94    31    34    1
    95   109   110    1
    96     5     6    1
    97   111   110    1
    98   111   112    2
    99     8     7    2
   100     7     6    1
   101     6     9    1
   102    26    27    1
   103    34    35    1
   104    34    36    1
   105    27    29    1
   106    27    28    1
   107     2     1    1
   108     2     3    1
   109     4     3    2
   110     9    10    1
   111    10    11    1
   112    11    12    1
   113    12    13    1
