@<TRIPOS>MOLECULE
tmp/1f8iA00.pdb
 120 114 0 0 0
SMALL
GASTEIGER

@<TRIPOS>ATOM
      1  N         17.1300   45.6720   54.6740 N.3    93  TRP93      -0.1241
      2  CA        15.9680   44.7890   54.7490 C.3    93  TRP93       0.1605
      3  C         15.1990   45.1380   56.0320 C.2    93  TRP93       0.2264
      4  O         13.9900   45.3770   55.9980 O.2    93  TRP93      -0.2867
      5  CB        16.4370   43.3180   54.8060 C.3    93  TRP93       0.0550
      6  CG        15.3400   42.2810   54.6960 C.ar   93  TRP93       0.0003
      7  CD1       15.0820   41.4800   53.6250 C.ar   93  TRP93       0.0946
      8  CD2       14.3440   41.9640   55.6800 C.ar   93  TRP93       0.0152
      9  NE1       13.9910   40.6870   53.8730 N.ar   93  TRP93      -0.2442
     10  CE2       13.5170   40.9630   55.1280 C.ar   93  TRP93       0.0810
     11  CE3       14.0700   42.4280   56.9710 C.ar   93  TRP93       0.0012
     12  CZ2       12.4300   40.4160   55.8230 C.ar   93  TRP93       0.0191
     13  CZ3       12.9830   41.8820   57.6650 C.ar   93  TRP93       0.0001
     14  CH2       12.1790   40.8870   57.0850 C.ar   93  TRP93       0.0015
     15  N         11.8230   43.7220   51.0690 N.3   108  ASP108     -0.1239
     16  CA        13.1090   44.3130   50.6840 C.3   108  ASP108      0.1674
     17  C         13.2790   44.6290   49.1890 C.2   108  ASP108      0.2266
     18  O         14.0310   43.9570   48.4800 O.2   108  ASP108     -0.2867
     19  CB        14.2240   43.3880   51.1660 C.3   108  ASP108      0.1410
     20  CG        15.5860   43.9980   51.0150 C.2   108  ASP108      0.3668
     21  OD1       15.6850   45.2460   51.0470 O.co2 108  ASP108     -0.2456
     22  OD2       16.5560   43.2250   50.8750 O.co2 108  ASP108     -0.2456
     23  N         14.8920   46.3110   42.4200 N.3   189  LYS189     -0.1245
     24  CA        15.7020   45.7700   43.5020 C.3   189  LYS189      0.1561
     25  C         14.9860   44.6860   44.2880 C.2   189  LYS189      0.2260
     26  O         13.8260   44.8350   44.6660 O.2   189  LYS189     -0.2867
     27  CB        16.1490   46.8950   44.4440 C.3   189  LYS189      0.0271
     28  CG        17.1120   46.4680   45.5530 C.3   189  LYS189      0.0035
     29  CD        16.3760   45.8970   46.7540 C.3   189  LYS189      0.0206
     30  CE        17.2780   45.8060   47.9840 C.3   189  LYS189      0.1093
     31  NZ        18.3660   44.8020   47.8190 N.3   189  LYS189     -0.1314
     32  N         15.5540   41.4610   47.4030 N.3   191  SER191     -0.1202
     33  CA        16.3650   40.9780   48.5030 C.3   191  SER191      0.2020
     34  C         17.2650   39.9260   47.8550 C.2   191  SER191      0.2619
     35  O         16.8640   39.2880   46.8830 O.2   191  SER191     -0.2717
     36  CB        15.4640   40.3300   49.5470 C.3   191  SER191      0.2103
     37  OG        16.2010   39.9450   50.6830 O.3   191  SER191     -0.2182
     38  N         18.4700   39.7500   48.3800 N.am  192  GLY192     -0.1942
     39  CA        19.3890   38.7800   47.8140 C.3   192  GLY192      0.2014
     40  C         18.8250   37.3760   47.6870 C.2   192  GLY192      0.2638
     41  O         19.2220   36.6190   46.7930 O.2   192  GLY192     -0.2714
     42  N         17.8870   37.0270   48.5620 N.am  193  HIS193     -0.1973
     43  CA        17.2980   35.6970   48.5430 C.3   193  HIS193      0.1656
     44  C         15.8400   35.6280   48.0870 C.2   193  HIS193      0.2291
     45  O         15.1130   34.6870   48.4140 O.2   193  HIS193     -0.2864
     46  CB        17.4960   35.0500   49.9150 C.3   193  HIS193      0.0771
     47  CG        18.9280   35.0470   50.3480 C.ar  193  HIS193      0.0820
     48  ND1       19.4480   35.9900   51.2100 N.ar  193  HIS193     -0.2267
     49  CD2       19.9810   34.3060   49.9240 C.ar  193  HIS193      0.1154
     50  CE1       20.7570   35.8340   51.2930 C.ar  193  HIS193      0.1986
     51  NE2       21.1050   34.8190   50.5210 N.ar  193  HIS193     -0.2212
     52  N         28.9250   44.3160   45.9980 N.3   228  ARG228     -0.1245
     53  CA        28.1150   43.1110   46.0860 C.3   228  ARG228      0.1563
     54  C         27.5460   42.6970   44.7390 C.2   228  ARG228      0.2260
     55  O         27.0970   43.5380   43.9620 O.2   228  ARG228     -0.2867
     56  CB        26.9630   43.3260   47.0770 C.3   228  ARG228      0.0307
     57  CG        25.7910   42.3690   46.8770 C.3   228  ARG228      0.0489
     58  CD        24.6880   42.5670   47.9240 C.3   228  ARG228      0.2205
     59  NE        23.3930   42.1100   47.4240 N.pl3 228  ARG228     -0.0865
     60  CZ        22.3160   41.9300   48.1750 C.cat 228  ARG228      0.5346
     61  NH1       22.3680   42.1640   49.4780 N.pl3 228  ARG228      0.1354
     62  NH2       21.1820   41.5230   47.6170 N.pl3 228  ARG228      0.1354
     63  N         31.4880   40.9540   47.9840 N.3   283  TRP283     -0.1241
     64  CA        30.5070   40.0430   48.5390 C.3   283  TRP283      0.1605
     65  C         29.6020   39.4360   47.4750 C.2   283  TRP283      0.2264
     66  O         29.0110   40.1370   46.6480 O.2   283  TRP283     -0.2867
     67  CB        29.7150   40.8030   49.6070 C.3   283  TRP283      0.0550
     68  CG        28.3480   40.2890   49.9660 C.ar  283  TRP283      0.0003
     69  CD1       27.8850   39.0040   49.8770 C.ar  283  TRP283      0.0946
     70  CD2       27.2900   41.0570   50.5470 C.ar  283  TRP283      0.0152
     71  NE1       26.6070   38.9290   50.3670 N.ar  283  TRP283     -0.2442
     72  CE2       26.2160   40.1750   50.7860 C.ar  283  TRP283      0.0810
     73  CE3       27.1490   42.4090   50.8940 C.ar  283  TRP283      0.0012
     74  CZ2       25.0100   40.6000   51.3570 C.ar  283  TRP283      0.0191
     75  CZ3       25.9500   42.8330   51.4630 C.ar  283  TRP283      0.0001
     76  CH2       24.8950   41.9260   51.6880 C.ar  283  TRP283      0.0015
     77  N         26.3100   37.0280   46.9150 N.3   285  GLU285     -0.1245
     78  CA        25.1410   36.4630   47.5730 C.3   285  GLU285      0.1567
     79  C         25.0720   35.0060   47.1330 C.2   285  GLU285      0.2260
     80  O         25.4370   34.6830   46.0000 O.2   285  GLU285     -0.2867
     81  CB        23.8700   37.1920   47.1350 C.3   285  GLU285      0.0388
     82  CG        23.5940   38.4880   47.8820 C.3   285  GLU285      0.1160
     83  CD        23.1680   38.2520   49.3250 C.2   285  GLU285      0.3649
     84  OE1       24.0120   37.8320   50.1490 O.co2 285  GLU285     -0.2457
     85  OE2       21.9760   38.4820   49.6300 O.co2 285  GLU285     -0.2457
     86  N         27.5950   36.9850   53.8730 N.3   313  ASN313     -0.1240
     87  CA        26.3030   37.1540   54.5190 C.3   313  ASN313      0.1653
     88  C         25.7950   35.8310   55.0840 C.2   313  ASN313      0.2266
     89  O         25.3350   34.9660   54.3390 O.2   313  ASN313     -0.2867
     90  CB        25.2960   37.7260   53.5020 C.3   313  ASN313      0.1155
     91  CG        23.8520   37.6690   53.9920 C.2   313  ASN313      0.2627
     92  OD1       23.5900   37.4780   55.1780 O.2   313  ASN313     -0.2716
     93  ND2       22.9070   37.8490   53.0700 N.am  313  ASN313     -0.0877
     94  N         23.2100   34.6260   56.1420 N.3   315  SER315     -0.1217
     95  CA        21.7930   34.9350   56.0650 C.3   315  SER315      0.1889
     96  C         20.7560   34.0640   56.7590 C.2   315  SER315      0.2288
     97  O         20.7910   32.8390   56.6680 O.2   315  SER315     -0.2866
     98  CB        21.4060   35.0550   54.5910 C.3   315  SER315      0.2089
     99  OG        20.0030   35.1590   54.4430 O.3   315  SER315     -0.2183
    100  N         17.9620   33.8530   55.8740 N.3   317  SER317     -0.1217
    101  CA        17.0900   33.4220   54.7860 C.3   317  SER317      0.1889
    102  C         17.4030   31.9700   54.4640 C.2   317  SER317      0.2288
    103  O         16.7540   31.3590   53.6160 O.2   317  SER317     -0.2866
    104  CB        17.2910   34.2810   53.5380 C.3   317  SER317      0.2089
    105  OG        16.6630   35.5390   53.6790 O.3   317  SER317     -0.2183
    106  N         22.5400   39.3670   58.5980 N.3   347  THR347     -0.1203
    107  CA        21.6650   40.4590   58.1740 C.3   347  THR347      0.1994
    108  C         20.4230   40.7470   59.0090 C.2   347  THR347      0.2617
    109  O         20.2590   41.8470   59.5330 O.2   347  THR347     -0.2717
    110  CB        21.1900   40.2550   56.7120 C.3   347  THR347      0.1784
    111  OG1       20.6290   38.9470   56.5750 O.3   347  THR347     -0.2211
    112  CG2       22.3490   40.4040   55.7330 C.3   347  THR347      0.0376
    113  N         19.5520   39.7550   59.1400 N.am  348  LEU348     -0.1979
    114  CA        18.2900   39.9470   59.8430 C.3   348  LEU348      0.1596
    115  C         18.2400   39.5470   61.3130 C.2   348  LEU348      0.2287
    116  O         17.1660   39.2270   61.8410 O.2   348  LEU348     -0.2864
    117  CB        17.1920   39.2190   59.0690 C.3   348  LEU348      0.0297
    118  CG        17.2920   39.3910   57.5470 C.3   348  LEU348      0.0022
    119  CD1       16.0980   38.7390   56.8730 C.3   348  LEU348      0.0001
    120  CD2       17.3700   40.8710   57.1960 C.3   348  LEU348      0.0001
@<TRIPOS>BOND
     1    23    24    1
     2    24    25    1
     3    24    27    1
     4    55    54    2
     5    25    26    2
     6    27    28    1
     7    54    53    1
     8    28    29    1
     9    52    53    1
    10    80    79    2
    11    53    56    1
    12    66    65    2
    13    29    30    1
    14    41    40    2
    15    57    56    1
    16    57    58    1
    17    35    34    2
    18    77    78    1
    19    79    78    1
    20    81    78    1
    21    81    82    1
    22    32    33    1
    23    59    58    1
    24    59    60    2
    25    65    64    1
    26    62    60    1
    27    40    39    1
    28    40    42   am
    29    39    38    1
    30    31    30    1
    31    34    38   am
    32    34    33    1
    33    82    83    1
    34    63    64    1
    35    44    45    2
    36    44    43    1
    37    60    61    1
    38    18    17    2
    39    33    36    1
    40    64    67    1
    41    43    42    1
    42    43    46    1
    43    17    16    1
    44    83    85   ar
    45    83    84   ar
    46    36    37    1
    47    67    68    1
    48    69    68   ar
    49    69    71   ar
    50    46    47    1
    51    49    47   ar
    52    49    51   ar
    53    68    70   ar
    54    47    48   ar
    55    71    72   ar
    56    51    50   ar
    57    70    72   ar
    58    70    73   ar
    59    16    15    1
    60    16    19    1
    61    72    74   ar
    62    22    20   ar
    63    73    75   ar
    64    20    21   ar
    65    20    19    1
    66    48    50   ar
    67    74    76   ar
    68    75    76   ar
    69    93    91   am
    70    90    91    1
    71    90    87    1
    72   104   105    1
    73   104   101    1
    74   103   102    2
    75     7     9   ar
    76     7     6   ar
    77     9    10   ar
    78    86    87    1
    79    91    92    2
    80    89    88    2
    81    99    98    1
    82   102   101    1
    83    87    88    1
    84    98    95    1
    85     1     2    1
    86     6     5    1
    87     6     8   ar
    88     2     5    1
    89     2     3    1
    90   101   100    1
    91    10     8   ar
    92    10    12   ar
    93     8    11   ar
    94   112   110    1
    95    12    14   ar
    96     4     3    2
    97    95    94    1
    98    95    96    1
    99   111   110    1
   100    97    96    2
   101   110   107    1
   102   119   118    1
   103    11    13   ar
   104    14    13   ar
   105   120   118    1
   106   118   117    1
   107   107   106    1
   108   107   108    1
   109   108   113   am
   110   108   109    2
   111   117   114    1
   112   113   114    1
   113   114   115    1
   114   115   116    2
