@<TRIPOS>MOLECULE
tmp/1f8uA00.pdb
 77 76 0 0 0
SMALL
GASTEIGER

@<TRIPOS>ATOM
      1  N        116.9400  111.7150 -122.3720 N.3   332  GLY332     -0.1210
      2  CA       115.9200  112.4200 -121.6150 C.3   332  GLY332      0.1956
      3  C        115.0780  111.5780 -120.6710 C.2   332  GLY332      0.2612
      4  O        114.6710  112.0680 -119.6220 O.2   332  GLY332     -0.2717
      5  N        114.7970  110.3260 -121.0280 N.am  333  ALA333     -0.1966
      6  CA       113.9880  109.4600 -120.1680 C.3   333  ALA333      0.1713
      7  C        114.6160  109.4040 -118.7840 C.2   333  ALA333      0.2458
      8  O        115.7580  108.9800 -118.6220 O.2   333  ALA333     -0.2730
      9  CB       113.8950  108.0580 -120.7540 C.3   333  ALA333      0.0333
     10  N        113.8670  109.8270 -117.7630 N.am  334  PRO334     -0.2716
     11  CA       114.3690  109.8270 -116.3880 C.3   334  PRO334      0.1536
     12  C        114.8700  108.4790 -115.9020 C.2   334  PRO334      0.2599
     13  O        114.1470  107.4900 -115.9390 O.2   334  PRO334     -0.2715
     14  CB       113.1720  110.3210 -115.5850 C.3   334  PRO334      0.0310
     15  CG       112.0050  109.8350 -116.3880 C.3   334  PRO334      0.0237
     16  CD       112.4270  110.1350 -117.8020 C.3   334  PRO334      0.0939
     17  N        116.1230  108.4470 -115.4610 N.am  335  GLY335     -0.1941
     18  CA       116.7030  107.2210 -114.9450 C.3   335  GLY335      0.2014
     19  C        117.5520  106.4200 -115.9090 C.2   335  GLY335      0.2639
     20  O        118.1680  105.4250 -115.5240 O.2   335  GLY335     -0.2714
     21  N        117.5920  106.8480 -117.1630 N.am  336  PHE336     -0.1959
     22  CA       118.3700  106.1470 -118.1700 C.3   336  PHE336      0.1771
     23  C        119.7270  106.7750 -118.4000 C.2   336  PHE336      0.2620
     24  O        119.8640  107.9940 -118.4080 O.2   336  PHE336     -0.2715
     25  CB       117.6040  106.1080 -119.4900 C.3   336  PHE336      0.0574
     26  CG       116.4900  105.1120 -119.5070 C.ar  336  PHE336     -0.0200
     27  CD1      116.7290  103.7970 -119.8910 C.ar  336  PHE336     -0.0042
     28  CD2      115.2100  105.4740 -119.1060 C.ar  336  PHE336     -0.0042
     29  CE1      115.7060  102.8500 -119.8760 C.ar  336  PHE336     -0.0003
     30  CE2      114.1800  104.5400 -119.0850 C.ar  336  PHE336     -0.0003
     31  CZ       114.4280  103.2220 -119.4710 C.ar  336  PHE336     -0.0000
     32  N        120.7280  105.9220 -118.5820 N.am  337  SER337     -0.1950
     33  CA       122.0960  106.3480 -118.8520 C.3   337  SER337      0.1924
     34  C        122.8520  105.1570 -119.4030 C.2   337  SER337      0.2314
     35  O        122.5210  104.0110 -119.1060 O.2   337  SER337     -0.2863
     36  CB       122.7900  106.8250 -117.5880 C.3   337  SER337      0.2116
     37  OG       124.1460  107.1110 -117.8770 O.3   337  SER337     -0.2180
     38  N        125.1960  102.8310 -116.6900 N.3   340  ASN340     -0.1225
     39  CA       124.6490  101.9020 -115.6960 C.3   340  ASN340      0.1785
     40  C        123.4350  101.1810 -116.2780 C.2   340  ASN340      0.2597
     41  O        122.8760  101.6190 -117.2790 O.2   340  ASN340     -0.2718
     42  CB       124.2900  102.6000 -114.3710 C.3   340  ASN340      0.1169
     43  CG       123.1080  103.5410 -114.4860 C.2   340  ASN340      0.2627
     44  OD1      122.0330  103.1570 -114.9440 O.2   340  ASN340     -0.2716
     45  ND2      123.3160  104.7780 -114.0380 N.am  340  ASN340     -0.0877
     46  N        123.0360  100.0760 -115.6540 N.am  341  GLU341     -0.1965
     47  CA       121.9100   99.2650 -116.1340 C.3   341  GLU341      0.1733
     48  C        120.5380   99.9470 -116.2080 C.2   341  GLU341      0.2617
     49  O        119.5360   99.3000 -116.5270 O.2   341  GLU341     -0.2715
     50  CB       121.7930   97.9950 -115.2880 C.3   341  GLU341      0.0429
     51  CG       123.0380   97.1310 -115.2950 C.3   341  GLU341      0.1163
     52  CD       122.8920   95.9150 -114.4070 C.2   341  GLU341      0.3649
     53  OE1      121.9610   95.1160 -114.6410 O.co2 341  GLU341     -0.2457
     54  OE2      123.7080   95.7600 -113.4740 O.co2 341  GLU341     -0.2457
     55  N        120.5010  101.2440 -115.9180 N.am  342  SER342     -0.1936
     56  CA       119.2640  102.0170 -115.9550 C.3   342  SER342      0.2055
     57  C        118.0530  101.2280 -115.4620 C.2   342  SER342      0.2642
     58  O        117.0580  101.0850 -116.1780 O.2   342  SER342     -0.2714
     59  CB       119.0010  102.5290 -117.3770 C.3   342  SER342      0.2130
     60  OG       119.9810  103.4700 -117.7740 O.3   342  SER342     -0.2179
     61  N        118.1510  100.7110 -114.2390 N.am  343  LEU343     -0.1977
     62  CA       117.0600   99.9550 -113.6320 C.3   343  LEU343      0.1596
     63  C        116.0840  100.9360 -113.0060 C.2   343  LEU343      0.2287
     64  O        116.0740  101.1480 -111.7970 O.2   343  LEU343     -0.2864
     65  CB       117.5950   99.0040 -112.5660 C.3   343  LEU343      0.0297
     66  CG       118.3490   97.7790 -113.0770 C.3   343  LEU343      0.0022
     67  CD1      118.8440   96.9890 -111.8970 C.3   343  LEU343      0.0001
     68  CD2      117.4310   96.9160 -113.9400 C.3   343  LEU343      0.0001
     69  N        109.7490  106.5200 -112.3810 N.3   348  GLU348     -0.1245
     70  CA       110.3950  107.0790 -113.5660 C.3   348  GLU348      0.1567
     71  C        109.7190  106.4880 -114.7980 C.2   348  GLU348      0.2260
     72  O        109.4360  107.1950 -115.7580 O.2   348  GLU348     -0.2867
     73  CB       111.8860  106.7350 -113.5590 C.3   348  GLU348      0.0388
     74  CG       112.5980  107.1850 -112.2880 C.3   348  GLU348      0.1160
     75  CD       114.0000  106.6100 -112.1470 C.2   348  GLU348      0.3649
     76  OE1      114.1630  105.3810 -112.3200 O.co2 348  GLU348     -0.2457
     77  OE2      114.9360  107.3840 -111.8470 O.co2 348  GLU348     -0.2457
@<TRIPOS>BOND
     1     1     2    1
     2     2     3    1
     3     5     3   am
     4     5     6    1
     5     9     6    1
     6     3     4    2
     7     6     7    1
     8    27    29   ar
     9    27    26   ar
    10    29    31   ar
    11    26    25    1
    12    26    28   ar
    13    25    22    1
    14    31    30   ar
    15    34    35    2
    16    34    33    1
    17    28    30   ar
    18    33    32    1
    19    33    36    1
    20     7     8    2
    21     7    10   am
    22    32    23   am
    23    24    23    2
    24    23    22    1
    25    22    21    1
    26    37    36    1
    27    16    10    1
    28    16    15    1
    29    60    59    1
    30    10    11    1
    31    59    56    1
    32    41    40    2
    33    21    19   am
    34    38    39    1
    35    49    48    2
    36    11    12    1
    37    11    14    1
    38    15    14    1
    39    40    39    1
    40    40    46   am
    41    48    47    1
    42    48    55   am
    43    58    57    2
    44    47    46    1
    45    47    50    1
    46    56    55    1
    47    56    57    1
    48    13    12    2
    49    19    20    2
    50    19    18    1
    51    12    17   am
    52    72    71    2
    53    39    42    1
    54    57    61   am
    55    17    18    1
    56    51    50    1
    57    51    52    1
    58    44    43    2
    59    71    70    1
    60    53    52   ar
    61    43    42    1
    62    43    45   am
    63    52    54   ar
    64    61    62    1
    65    68    66    1
    66    62    63    1
    67    62    65    1
    68    70    73    1
    69    70    69    1
    70    73    74    1
    71    66    65    1
    72    66    67    1
    73    63    64    2
    74    76    75   ar
    75    74    75    1
    76    75    77   ar
