@<TRIPOS>MOLECULE
tmp/1f8yB00.pdb
 131 127 0 0 0
SMALL
GASTEIGER

@<TRIPOS>ATOM
      1  N         68.4060  -11.2540   -1.3160 N.3     6  TYR6       -0.1241
      2  CA        66.9590  -11.2150   -1.2180 C.3     6  TYR6        0.1605
      3  C         66.6070  -12.4190   -2.0740 C.2     6  TYR6        0.2264
      4  O         66.9000  -12.4240   -3.2730 O.2     6  TYR6       -0.2867
      5  CB        66.3700   -9.9630   -1.8570 C.3     6  TYR6        0.0534
      6  CG        64.8640  -10.0500   -2.0080 C.ar    6  TYR6       -0.0201
      7  CD1       64.0140   -9.6420   -0.9750 C.ar    6  TYR6       -0.0009
      8  CD2       64.2870  -10.5550   -3.1770 C.ar    6  TYR6       -0.0009
      9  CE1       62.6290   -9.7300   -1.1000 C.ar    6  TYR6        0.0417
     10  CE2       62.9090  -10.6520   -3.3100 C.ar    6  TYR6        0.0417
     11  CZ        62.0850  -10.2380   -2.2690 C.ar    6  TYR6        0.1957
     12  OH        60.7160  -10.3420   -2.3960 O.3     6  TYR6       -0.2866
     13  N         64.5750  -14.0180   -4.2540 N.3     8  GLY8       -0.1210
     14  CA        63.4270  -13.7990   -5.1130 C.3     8  GLY8        0.1956
     15  C         63.0610  -15.0450   -5.8880 C.2     8  GLY8        0.2612
     16  O         63.6960  -15.3730   -6.8880 O.2     8  GLY8       -0.2717
     17  N         62.0270  -15.7360   -5.4250 N.am    9  ALA9       -0.1965
     18  CA        61.5670  -16.9550   -6.0650 C.3     9  ALA9        0.1728
     19  C         60.0590  -17.1300   -5.8870 C.2     9  ALA9        0.2617
     20  O         59.5150  -16.8050   -4.8310 O.2     9  ALA9       -0.2715
     21  CB        62.2990  -18.1450   -5.4660 C.3     9  ALA9        0.0334
     22  N         59.3830  -17.5980   -6.9350 N.am   10  GLY10      -0.1940
     23  CA        57.9510  -17.8420   -6.8530 C.3    10  GLY10       0.2014
     24  C         57.6950  -19.1610   -6.1380 C.2    10  GLY10       0.2639
     25  O         58.6380  -19.8870   -5.8190 O.2    10  GLY10      -0.2714
     26  N         56.4340  -19.4800   -5.8730 N.am   11  TRP11      -0.1959
     27  CA        56.0950  -20.7340   -5.1970 C.3    11  TRP11       0.1771
     28  C         54.6970  -21.1740   -5.6200 C.2    11  TRP11       0.2619
     29  O         53.9740  -21.8220   -4.8680 O.2    11  TRP11      -0.2715
     30  CB        56.1780  -20.5560   -3.6760 C.3    11  TRP11       0.0590
     31  CG        55.3590  -19.4080   -3.1080 C.ar   11  TRP11       0.0006
     32  CD1       54.0320  -19.4340   -2.7630 C.ar   11  TRP11       0.0946
     33  CD2       55.8320  -18.0940   -2.7700 C.ar   11  TRP11       0.0152
     34  NE1       53.6590  -18.2260   -2.2230 N.ar   11  TRP11      -0.2442
     35  CE2       54.7410  -17.3840   -2.2180 C.ar   11  TRP11       0.0810
     36  CE3       57.0710  -17.4490   -2.8780 C.ar   11  TRP11       0.0012
     37  CZ2       54.8500  -16.0650   -1.7740 C.ar   11  TRP11       0.0191
     38  CZ3       57.1810  -16.1350   -2.4360 C.ar   11  TRP11       0.0001
     39  CH2       56.0750  -15.4580   -1.8910 C.ar   11  TRP11       0.0015
     40  N         54.3650  -20.8790   -6.8710 N.am   12  PHE12      -0.1974
     41  CA        53.0490  -21.1610   -7.4250 C.3    12  PHE12       0.1639
     42  C         52.9530  -22.3010   -8.4370 C.2    12  PHE12       0.2290
     43  O         51.8830  -22.5440   -8.9810 O.2    12  PHE12      -0.2864
     44  CB        52.4900  -19.8700   -8.0380 C.3    12  PHE12       0.0560
     45  CG        52.9090  -18.6300   -7.2980 C.ar   12  PHE12      -0.0200
     46  CD1       52.4330  -18.3710   -6.0170 C.ar   12  PHE12      -0.0042
     47  CD2       53.8560  -17.7640   -7.8480 C.ar   12  PHE12      -0.0042
     48  CE1       52.8960  -17.2790   -5.2920 C.ar   12  PHE12      -0.0003
     49  CE2       54.3260  -16.6630   -7.1250 C.ar   12  PHE12      -0.0003
     50  CZ        53.8490  -16.4240   -5.8490 C.ar   12  PHE12      -0.0000
     51  N         61.2720  -14.0540    1.3530 N.3    41  PRO41      -0.2116
     52  CA        59.8520  -13.6740    1.3420 C.3    41  PRO41       0.1372
     53  C         58.8540  -14.6020    2.0150 C.2    41  PRO41       0.2244
     54  O         58.0530  -14.1600    2.8360 O.2    41  PRO41      -0.2868
     55  CB        59.5640  -13.5120   -0.1480 C.3    41  PRO41       0.0268
     56  CG        60.8570  -13.0030   -0.6670 C.3    41  PRO41       0.0207
     57  CD        61.8570  -13.8910    0.0130 C.3    41  PRO41       0.0892
     58  N         56.0760  -13.2010    5.3330 N.3    45  GLN45      -0.1245
     59  CA        54.7630  -12.7310    4.9500 C.3    45  GLN45       0.1566
     60  C         54.1760  -12.1650    6.2570 C.2    45  GLN45       0.2260
     61  O         54.3960  -12.7280    7.3340 O.2    45  GLN45      -0.2867
     62  CB        53.9520  -13.9140    4.4180 C.3    45  GLN45       0.0367
     63  CG        53.3730  -13.7220    3.0160 C.3    45  GLN45       0.0905
     64  CD        54.4110  -13.4860    1.9260 C.2    45  GLN45       0.2608
     65  OE1       55.5500  -13.0790    2.1790 O.2    45  GLN45      -0.2717
     66  NE2       53.9970  -13.7010    0.6920 N.am   45  GLN45      -0.0878
     67  N         48.6860  -15.9070    1.9490 N.3    51  VAL51      -0.1245
     68  CA        47.3370  -15.7360    1.4200 C.3    51  VAL51       0.1561
     69  C         46.8310  -16.9060    0.5670 C.2    51  VAL51       0.2260
     70  O         45.6420  -17.2120    0.5760 O.2    51  VAL51      -0.2867
     71  CB        47.1920  -14.4040    0.6820 C.3    51  VAL51       0.0252
     72  CG1       47.7270  -14.5190   -0.7110 C.3    51  VAL51       0.0019
     73  CG2       45.7630  -13.9620    0.6920 C.3    51  VAL51       0.0019
     74  N         47.3660   -6.3060    5.2390 N.3    63  TRP63      -0.1241
     75  CA        48.2590   -7.4480    5.0720 C.3    63  TRP63       0.1605
     76  C         49.0990   -7.2010    3.8140 C.2    63  TRP63       0.2264
     77  O         50.3140   -7.4200    3.8050 O.2    63  TRP63      -0.2867
     78  CB        47.4750   -8.7620    4.9380 C.3    63  TRP63       0.0550
     79  CG        48.3730   -9.9450    4.5880 C.ar   63  TRP63       0.0003
     80  CD1       49.0110  -10.7980    5.4660 C.ar   63  TRP63       0.0946
     81  CD2       48.7980  -10.3360    3.2770 C.ar   63  TRP63       0.0152
     82  NE1       49.8120  -11.6760    4.7720 N.ar   63  TRP63      -0.2442
     83  CE2       49.7020  -11.4150    3.4290 C.ar   63  TRP63       0.0810
     84  CE3       48.5050   -9.8750    1.9830 C.ar   63  TRP63       0.0012
     85  CZ2       50.3150  -12.0360    2.3380 C.ar   63  TRP63       0.0191
     86  CZ3       49.1150  -10.4970    0.8940 C.ar   63  TRP63       0.0001
     87  CH2       50.0110  -11.5660    1.0810 C.ar   63  TRP63       0.0015
     88  N         53.2140   -6.6810    3.7920 N.3    67  THR67      -0.1218
     89  CA        54.0370   -7.6570    3.0900 C.3    67  THR67       0.1862
     90  C         54.8160   -7.0010    1.9490 C.2    67  THR67       0.2287
     91  O         56.0220   -7.2170    1.7980 O.2    67  THR67      -0.2866
     92  CB        53.1760   -8.8290    2.5690 C.3    67  THR67       0.1770
     93  OG1       52.4090   -9.3690    3.6550 O.3    67  THR67      -0.2211
     94  CG2       54.0640   -9.9350    2.0000 C.3    67  THR67       0.0375
     95  N         58.8670   -6.8700    1.7520 N.3    71  ASP71      -0.1239
     96  CA        59.6440   -7.3630    0.6090 C.3    71  ASP71       0.1674
     97  C         60.5870   -6.2670    0.0950 C.2    71  ASP71       0.2266
     98  O         61.7750   -6.5230   -0.1540 O.2    71  ASP71      -0.2867
     99  CB        58.7360   -7.8070   -0.5490 C.3    71  ASP71       0.1410
    100  CG        57.9900   -9.1140   -0.2680 C.2    71  ASP71       0.3668
    101  OD1       58.3480   -9.8440    0.6840 O.co2  71  ASP71      -0.2456
    102  OD2       57.0340   -9.4110   -1.0230 O.co2  71  ASP71      -0.2456
    103  N         57.3490  -14.8620  -13.6790 N.3    91  ASP91      -0.1239
    104  CA        56.5530  -14.2350  -12.6290 C.3    91  ASP91       0.1674
    105  C         56.5500  -12.7080  -12.7000 C.2    91  ASP91       0.2266
    106  O         57.6120  -12.0830  -12.6990 O.2    91  ASP91      -0.2867
    107  CB        57.1130  -14.6730  -11.2670 C.3    91  ASP91       0.1410
    108  CG        56.2660  -14.2100  -10.0960 C.2    91  ASP91       0.3668
    109  OD1       55.0460  -13.9770  -10.2580 O.co2  91  ASP91      -0.2456
    110  OD2       56.8240  -14.0970   -8.9950 O.co2  91  ASP91      -0.2456
    111  N         55.6080  -10.6290  -10.3290 N.3    93  GLY93      -0.1210
    112  CA        56.1210  -10.1230   -9.0660 C.3    93  GLY93       0.1956
    113  C         57.6360  -10.0420   -9.0660 C.2    93  GLY93       0.2611
    114  O         58.2190   -9.0360   -8.6420 O.2    93  GLY93      -0.2717
    115  N         58.2830  -11.0930   -9.5580 N.am   94  LEU94      -0.1979
    116  CA        59.7350  -11.1010   -9.6270 C.3    94  LEU94       0.1596
    117  C         60.1810   -9.9760  -10.5550 C.2    94  LEU94       0.2287
    118  O         61.1380   -9.2720  -10.2590 O.2    94  LEU94      -0.2864
    119  CB        60.2540  -12.4420  -10.1310 C.3    94  LEU94       0.0297
    120  CG        61.7720  -12.5570  -10.2820 C.3    94  LEU94       0.0022
    121  CD1       62.4570  -12.2590   -8.9650 C.3    94  LEU94       0.0001
    122  CD2       62.1220  -13.9470  -10.7570 C.3    94  LEU94       0.0001
    123  N         60.2650   -6.7110   -8.8360 N.3    97  GLU97      -0.1245
    124  CA        61.4010   -6.6920   -7.9170 C.3    97  GLU97       0.1567
    125  C         62.7390   -6.4980   -8.6220 C.2    97  GLU97       0.2260
    126  O         63.6500   -5.8780   -8.0680 O.2    97  GLU97      -0.2867
    127  CB        61.3970   -7.9510   -7.0530 C.3    97  GLU97       0.0388
    128  CG        60.1550   -8.0290   -6.1630 C.3    97  GLU97       0.1160
    129  CD        59.9250   -9.3960   -5.5470 C.2    97  GLU97       0.3649
    130  OE1       59.1340   -9.4800   -4.5800 O.co2  97  GLU97      -0.2457
    131  OE2       60.5140  -10.3840   -6.0260 O.co2  97  GLU97      -0.2457
@<TRIPOS>BOND
     1   103   104    1
     2   105   106    2
     3   105   104    1
     4   104   107    1
     5   107   108    1
     6   122   120    1
     7   117   118    2
     8   117   116    1
     9   111   112    1
    10   120   119    1
    11   120   121    1
    12   109   108   ar
    13   119   116    1
    14   108   110   ar
    15   116   115    1
    16   115   113   am
    17   113   112    1
    18   113   114    2
    19    43    42    2
    20   123   124    1
    21   125   126    2
    22   125   124    1
    23    42    41    1
    24    44    41    1
    25    44    45    1
    26   124   127    1
    27    47    45   ar
    28    47    49   ar
    29    41    40    1
    30    45    46   ar
    31    49    50   ar
    32   127   128    1
    33    22    23    1
    34    22    19   am
    35    16    15    2
    36    40    28   am
    37    23    24    1
    38   128   129    1
    39    24    26   am
    40    24    25    2
    41    18    19    1
    42    18    21    1
    43    18    17    1
    44   131   129   ar
    45    46    48   ar
    46    15    17   am
    47    15    14    1
    48    19    20    2
    49    26    27    1
    50    50    48   ar
    51    28    27    1
    52    28    29    2
    53   129   130   ar
    54    27    30    1
    55    14    13    1
    56    30    31    1
    57    10     8   ar
    58    10    11   ar
    59     4     3    2
    60     8     6   ar
    61    31    33   ar
    62    31    32   ar
    63    36    33   ar
    64    36    38   ar
    65    33    35   ar
    66    32    34   ar
    67    38    39   ar
    68    12    11    1
    69    11     9   ar
    70    34    35   ar
    71    35    37   ar
    72     3     2    1
    73     6     5    1
    74     6     7   ar
    75    39    37   ar
    76     5     2    1
    77     1     2    1
    78     9     7   ar
    79   102   100   ar
    80    72    71    1
    81    56    55    1
    82    56    57    1
    83    99   100    1
    84    99    96    1
    85   100   101   ar
    86    98    97    2
    87    55    52    1
    88    57    51    1
    89    97    96    1
    90    69    70    2
    91    69    68    1
    92    96    95    1
    93    71    73    1
    94    71    68    1
    95    66    64   am
    96    86    87   ar
    97    86    84   ar
    98    87    85   ar
    99    52    51    1
   100    52    53    1
   101    68    67    1
   102    91    90    2
   103    64    65    2
   104    64    63    1
   105    90    89    1
   106    84    81   ar
   107    94    92    1
   108    53    54    2
   109    85    83   ar
   110    92    89    1
   111    92    93    1
   112    63    62    1
   113    89    88    1
   114    81    83   ar
   115    81    79   ar
   116    83    82   ar
   117    77    76    2
   118    76    75    1
   119    62    59    1
   120    79    78    1
   121    79    80   ar
   122    82    80   ar
   123    78    75    1
   124    59    58    1
   125    59    60    1
   126    75    74    1
   127    60    61    2
