@<TRIPOS>MOLECULE
tmp/1f90B00.pdb
 110 109 0 0 0
SMALL
GASTEIGER

@<TRIPOS>ATOM
      1  N         52.6070   42.0920  -22.3780 N.3    32  ASP32      -0.1225
      2  CA        53.7510   42.9900  -22.3900 C.3    32  ASP32       0.1805
      3  C         54.0200   43.5130  -23.8020 C.2    32  ASP32       0.2598
      4  O         53.3210   43.1600  -24.7510 O.2    32  ASP32      -0.2718
      5  CB        54.9680   42.2110  -21.8760 C.3    32  ASP32       0.1424
      6  CG        56.1650   43.1040  -21.5690 C.2    32  ASP32       0.3668
      7  OD1       56.0330   44.3520  -21.5980 O.co2  32  ASP32      -0.2456
      8  OD2       57.2480   42.5440  -21.2870 O.co2  32  ASP32      -0.2456
      9  N         55.0160   44.3810  -23.9270 N.am   33  TYR33      -0.1962
     10  CA        55.4360   44.9120  -25.2220 C.3    33  TYR33       0.1771
     11  C         54.5890   45.9550  -25.9450 C.2    33  TYR33       0.2619
     12  O         53.4480   46.2330  -25.5820 O.2    33  TYR33      -0.2715
     13  CB        55.6770   43.7490  -26.1710 C.3    33  TYR33       0.0574
     14  CG        56.4830   42.6310  -25.5600 C.ar   33  TYR33      -0.0198
     15  CD1       57.7520   42.8630  -25.0420 C.ar   33  TYR33      -0.0009
     16  CD2       55.9900   41.3310  -25.5430 C.ar   33  TYR33      -0.0009
     17  CE1       58.5210   41.8190  -24.5240 C.ar   33  TYR33       0.0417
     18  CE2       56.7410   40.2810  -25.0300 C.ar   33  TYR33       0.0417
     19  CZ        58.0090   40.5250  -24.5220 C.ar   33  TYR33       0.1957
     20  OH        58.7510   39.4720  -24.0280 O.3    33  TYR33      -0.2866
     21  N         55.1920   46.5270  -26.9810 N.am   34  ALA34      -0.1977
     22  CA        54.5660   47.5320  -27.8240 C.3    34  ALA34       0.1597
     23  C         54.2720   46.8950  -29.1880 C.2    34  ALA34       0.2287
     24  O         55.1330   46.2590  -29.7920 O.2    34  ALA34      -0.2864
     25  CB        55.4990   48.7180  -27.9890 C.3    34  ALA34       0.0319
     26  N         53.5500   47.7050  -32.8200 N.3    36  ASN36      -0.1240
     27  CA        53.6440   48.7630  -33.8200 C.3    36  ASN36       0.1653
     28  C         53.1630   48.4420  -35.2090 C.2    36  ASN36       0.2266
     29  O         52.7780   47.3230  -35.5310 O.2    36  ASN36      -0.2867
     30  CB        55.0920   49.2200  -33.9770 C.3    36  ASN36       0.1155
     31  CG        55.8320   49.2860  -32.6720 C.2    36  ASN36       0.2627
     32  OD1       56.3400   50.3400  -32.2870 O.2    36  ASN36      -0.2716
     33  ND2       55.9170   48.1550  -31.9820 N.am   36  ASN36      -0.0877
     34  N         52.1900   52.8160  -32.3600 N.3    51  TYR51      -0.1241
     35  CA        52.0870   51.5730  -31.6240 C.3    51  TYR51       0.1605
     36  C         50.9550   51.6940  -30.6320 C.2    51  TYR51       0.2264
     37  O         50.3630   52.7670  -30.4730 O.2    51  TYR51      -0.2867
     38  CB        53.3840   51.2870  -30.8710 C.3    51  TYR51       0.0534
     39  CG        53.7450   52.3250  -29.8250 C.ar   51  TYR51      -0.0201
     40  CD1       52.8700   52.6240  -28.7790 C.ar   51  TYR51      -0.0009
     41  CD2       54.9760   52.9870  -29.8610 C.ar   51  TYR51      -0.0009
     42  CE1       53.2070   53.5500  -27.7970 C.ar   51  TYR51       0.0417
     43  CE2       55.3260   53.9130  -28.8800 C.ar   51  TYR51       0.0417
     44  CZ        54.4340   54.1870  -27.8520 C.ar   51  TYR51       0.1957
     45  OH        54.7540   55.0880  -26.8670 O.3    51  TYR51      -0.2866
     46  N         50.4520   49.9920  -26.7370 N.3    53  THR53      -0.1203
     47  CA        51.0870   49.1660  -25.7330 C.3    53  THR53       0.1994
     48  C         50.1460   48.1150  -25.1900 C.2    53  THR53       0.2617
     49  O         48.9310   48.1930  -25.3850 O.2    53  THR53      -0.2717
     50  CB        51.6190   50.0400  -24.5900 C.3    53  THR53       0.1784
     51  OG1       50.5260   50.6720  -23.9090 O.3    53  THR53      -0.2211
     52  CG2       52.5490   51.1110  -25.1550 C.3    53  THR53       0.0376
     53  N         50.7160   47.1240  -24.5140 N.am   54  TYR54      -0.1975
     54  CA        49.9260   46.0420  -23.9360 C.3    54  TYR54       0.1639
     55  C         48.8590   46.5800  -22.9860 C.2    54  TYR54       0.2290
     56  O         47.9330   45.8630  -22.6170 O.2    54  TYR54      -0.2864
     57  CB        50.8280   45.0560  -23.1870 C.3    54  TYR54       0.0560
     58  CG        51.4780   45.6460  -21.9690 C.ar   54  TYR54      -0.0198
     59  CD1       52.4330   46.6480  -22.0880 C.ar   54  TYR54      -0.0009
     60  CD2       51.1040   45.2360  -20.6950 C.ar   54  TYR54      -0.0009
     61  CE1       52.9970   47.2380  -20.9740 C.ar   54  TYR54       0.0417
     62  CE2       51.6640   45.8140  -19.5660 C.ar   54  TYR54       0.0417
     63  CZ        52.6120   46.8200  -19.7100 C.ar   54  TYR54       0.1957
     64  OH        53.1740   47.4110  -18.5970 O.3    54  TYR54      -0.2866
     65  N         47.7270   52.0090  -24.3280 N.3    57  SER57      -0.1217
     66  CA        48.3010   53.3210  -24.6030 C.3    57  SER57       0.1889
     67  C         48.8350   53.3810  -26.0190 C.2    57  SER57       0.2288
     68  O         49.3900   52.4130  -26.5190 O.2    57  SER57      -0.2866
     69  CB        49.4290   53.6160  -23.6240 C.3    57  SER57       0.2089
     70  OG        49.9380   54.9170  -23.8430 O.3    57  SER57      -0.2183
     71  N         58.0160   44.5240  -30.2100 N.3    99  TYR99      -0.1227
     72  CA        59.3310   44.6020  -29.6010 C.3    99  TYR99       0.1736
     73  C         59.2940   45.6670  -28.5160 C.2    99  TYR99       0.2595
     74  O         58.3380   46.4330  -28.4340 O.2    99  TYR99      -0.2718
     75  CB        60.3690   44.9410  -30.6730 C.3    99  TYR99       0.0548
     76  CG        60.0450   46.1790  -31.4750 C.ar   99  TYR99      -0.0200
     77  CD1       60.2960   47.4550  -30.9590 C.ar   99  TYR99      -0.0009
     78  CD2       59.4760   46.0800  -32.7520 C.ar   99  TYR99      -0.0009
     79  CE1       59.9900   48.6060  -31.6900 C.ar   99  TYR99       0.0417
     80  CE2       59.1650   47.2260  -33.4950 C.ar   99  TYR99       0.0417
     81  CZ        59.4260   48.4880  -32.9550 C.ar   99  TYR99       0.1957
     82  OH        59.1370   49.6260  -33.6750 O.3    99  TYR99      -0.2866
     83  N         60.3090   45.7070  -27.6660 N.am  100  ASP100     -0.1960
     84  CA        60.3340   46.7190  -26.6270 C.3   100  ASP100      0.1840
     85  C         61.6440   47.5030  -26.6150 C.2   100  ASP100      0.2622
     86  O         61.8440   48.3790  -25.7760 O.2   100  ASP100     -0.2715
     87  CB        60.0790   46.0940  -25.2530 C.3   100  ASP100      0.1450
     88  CG        61.0430   44.9790  -24.9310 C.2   100  ASP100      0.3671
     89  OD1       62.2470   45.1060  -25.2390 O.co2 100  ASP100     -0.2456
     90  OD2       60.5920   43.9740  -24.3500 O.co2 100  ASP100     -0.2456
     91  N         62.5310   47.1830  -27.5500 N.am  101  ASP101     -0.1957
     92  CA        63.8200   47.8590  -27.6630 C.3   101  ASP101      0.1840
     93  C         64.8820   47.5480  -26.6110 C.2   101  ASP101      0.2622
     94  O         66.0010   48.0660  -26.7040 O.2   101  ASP101     -0.2715
     95  CB        63.6300   49.3740  -27.7020 C.3   101  ASP101      0.1450
     96  CG        63.4440   49.8960  -29.0960 C.2   101  ASP101      0.3671
     97  OD1       64.0680   49.3350  -30.0150 O.co2 101  ASP101     -0.2456
     98  OD2       62.6960   50.8760  -29.2790 O.co2 101  ASP101     -0.2456
     99  N         64.5650   46.7360  -25.6060 N.am  102  TYR102     -0.1974
    100  CA        65.5820   46.4420  -24.6060 C.3   102  TYR102      0.1639
    101  C         65.7350   44.9750  -24.2060 C.2   102  TYR102      0.2290
    102  O         66.7190   44.6110  -23.5600 O.2   102  TYR102     -0.2864
    103  CB        65.3880   47.3280  -23.3690 C.3   102  TYR102      0.0560
    104  CG        64.1600   47.0440  -22.5410 C.ar  102  TYR102     -0.0198
    105  CD1       62.8970   47.4900  -22.9350 C.ar  102  TYR102     -0.0009
    106  CD2       64.2690   46.3530  -21.3390 C.ar  102  TYR102     -0.0009
    107  CE1       61.7740   47.2510  -22.1370 C.ar  102  TYR102      0.0417
    108  CE2       63.1630   46.1090  -20.5410 C.ar  102  TYR102      0.0417
    109  CZ        61.9240   46.5560  -20.9360 C.ar  102  TYR102      0.1957
    110  OH        60.8500   46.3130  -20.1120 O.3   102  TYR102     -0.2866
@<TRIPOS>BOND
     1    29    28    2
     2    28    27    1
     3    30    27    1
     4    30    31    1
     5    27    26    1
     6    82    81    1
     7    80    81   ar
     8    80    78   ar
     9    81    79   ar
    10    78    76   ar
    11    31    32    2
    12    31    33   am
    13    34    35    1
    14    79    77   ar
    15    35    38    1
    16    35    36    1
    17    76    77   ar
    18    76    75    1
    19    38    39    1
    20    75    72    1
    21    36    37    2
    22    71    72    1
    23    97    96   ar
    24    41    39   ar
    25    41    43   ar
    26    39    40   ar
    27    24    23    2
    28    72    73    1
    29    98    96   ar
    30    23    22    1
    31    96    95    1
    32    43    44   ar
    33    40    42   ar
    34    73    74    2
    35    73    83   am
    36    25    22    1
    37    44    42   ar
    38    44    45    1
    39    22    21    1
    40    95    92    1
    41    83    84    1
    42    92    91    1
    43    92    93    1
    44    91    85   am
    45    21    11   am
    46    46    47    1
    47    94    93    2
    48    84    85    1
    49    84    87    1
    50    85    86    2
    51    93    99   am
    52    68    67    2
    53    13    14    1
    54    13    10    1
    55    67    66    1
    56    11    12    2
    57    11    10    1
    58    47    48    1
    59    47    50    1
    60    99   100    1
    61    14    16   ar
    62    14    15   ar
    63    16    18   ar
    64    49    48    2
    65    87    88    1
    66    89    88   ar
    67    10     9    1
    68    48    53   am
    69    52    50    1
    70    15    17   ar
    71    18    19   ar
    72    88    90   ar
    73     4     3    2
    74   100   101    1
    75   100   103    1
    76    66    65    1
    77    66    69    1
    78    50    51    1
    79    17    19   ar
    80    19    20    1
    81    53    54    1
    82   101   102    2
    83    54    57    1
    84    54    55    1
    85     9     3   am
    86    70    69    1
    87     3     2    1
    88   103   104    1
    89    57    58    1
    90    55    56    2
    91   105   104   ar
    92   105   107   ar
    93   104   106   ar
    94     2     1    1
    95     2     5    1
    96   107   109   ar
    97    59    58   ar
    98    59    61   ar
    99    58    60   ar
   100     5     6    1
   101     7     6   ar
   102     6     8   ar
   103   106   108   ar
   104    61    63   ar
   105   109   108   ar
   106   109   110    1
   107    60    62   ar
   108    63    62   ar
   109    63    64    1
