@<TRIPOS>MOLECULE
tmp/1f91C00.pdb
 128 124 0 0 0
SMALL
GASTEIGER

@<TRIPOS>ATOM
      1  N         56.0650   71.5470  114.3340 N.3   106  GLY106     -0.1210
      2  CA        57.0620   70.4990  114.2500 C.3   106  GLY106      0.1956
      3  C         57.7220   70.3920  112.8890 C.2   106  GLY106      0.2612
      4  O         58.9210   70.1510  112.8100 O.2   106  GLY106     -0.2717
      5  N         56.9550   70.5800  111.8190 N.am  107  GLY107     -0.1956
      6  CA        57.5370   70.4630  110.4950 C.3   107  GLY107      0.1869
      7  C         57.4160   71.6450  109.5530 C.2   107  GLY107      0.2309
      8  O         57.7660   71.5290  108.3810 O.2   107  GLY107     -0.2863
      9  N         55.5140   70.9770  105.0650 N.3   110  PRO110     -0.2116
     10  CA        56.0160   70.0890  104.0140 C.3   110  PRO110      0.1372
     11  C         55.1700   70.2900  102.7620 C.2   110  PRO110      0.2244
     12  O         55.6860   70.2570  101.6490 O.2   110  PRO110     -0.2868
     13  CB        55.8370   68.6940  104.6180 C.3   110  PRO110      0.0268
     14  CG        56.0760   68.9390  106.0700 C.3   110  PRO110      0.0207
     15  CD        55.3010   70.2350  106.3220 C.3   110  PRO110      0.0892
     16  N         59.9810   68.8100  117.9490 N.3   162  ALA162     -0.1231
     17  CA        59.1510   67.6680  117.6100 C.3   162  ALA162      0.1694
     18  C         57.8400   67.6840  118.4000 C.2   162  ALA162      0.2592
     19  O         57.1440   68.7010  118.4160 O.2   162  ALA162     -0.2718
     20  CB        59.9290   66.3740  117.8650 C.3   162  ALA162      0.0304
     21  N         57.5060   66.5720  119.0550 N.am  163  SER163     -0.1952
     22  CA        56.2620   66.4820  119.8190 C.3   163  SER163      0.1924
     23  C         56.2620   67.3580  121.0800 C.2   163  SER163      0.2314
     24  O         55.2300   67.5190  121.7240 O.2   163  SER163     -0.2863
     25  CB        55.9640   65.0190  120.2060 C.3   163  SER163      0.2116
     26  OG        56.1820   64.1130  119.1140 O.3   163  SER163     -0.2180
     27  N         50.0510   72.6420  113.5010 N.3   191  GLU191     -0.1245
     28  CA        50.6400   71.6460  112.6260 C.3   191  GLU191      0.1567
     29  C         49.6600   71.3320  111.5160 C.2   191  GLU191      0.2260
     30  O         48.4760   71.1210  111.7690 O.2   191  GLU191     -0.2867
     31  CB        50.9440   70.3690  113.4000 C.3   191  GLU191      0.0388
     32  CG        51.9800   69.4790  112.7490 C.3   191  GLU191      0.1160
     33  CD        53.3970   69.9630  112.9990 C.2   191  GLU191      0.3649
     34  OE1       53.8250   69.9770  114.1740 O.co2 191  GLU191     -0.2457
     35  OE2       54.0850   70.3270  112.0250 O.co2 191  GLU191     -0.2457
     36  N         53.7740   64.9470  104.7640 N.3   197  MET197     -0.1245
     37  CA        54.4330   64.7700  106.0460 C.3   197  MET197      0.1570
     38  C         54.1480   63.3910  106.6340 C.2   197  MET197      0.2261
     39  O         55.0580   62.6960  107.0940 O.2   197  MET197     -0.2867
     40  CB        53.9600   65.8550  107.0170 C.3   197  MET197      0.0387
     41  CG        54.6340   65.8160  108.3690 C.3   197  MET197      0.0595
     42  SD        53.8180   66.9200  109.5520 S.3   197  MET197     -0.1393
     43  CE        54.6830   68.4650  109.2330 C.3   197  MET197      0.0692
     44  N         56.1860   60.1320  105.7050 N.3   200  GLU200     -0.1231
     45  CA        57.5170   59.9620  106.2800 C.3   200  GLU200      0.1699
     46  C         57.4500   59.1080  107.5510 C.2   200  GLU200      0.2592
     47  O         58.3410   58.3040  107.8230 O.2   200  GLU200     -0.2718
     48  CB        58.1220   61.3290  106.5940 C.3   200  GLU200      0.0402
     49  CG        58.2350   62.2080  105.3670 C.3   200  GLU200      0.1161
     50  CD        58.5440   63.6410  105.7030 C.2   200  GLU200      0.3649
     51  OE1       58.5220   64.4900  104.7860 O.co2 200  GLU200     -0.2457
     52  OE2       58.8140   63.9310  106.8820 O.co2 200  GLU200     -0.2457
     53  N         56.3760   59.2920  108.3130 N.am  201  PHE201     -0.1976
     54  CA        56.1510   58.5660  109.5540 C.3   201  PHE201      0.1639
     55  C         55.7450   57.1420  109.2680 C.2   201  PHE201      0.2290
     56  O         56.1080   56.2200  109.9950 O.2   201  PHE201     -0.2864
     57  CB        55.0570   59.2530  110.3550 C.3   201  PHE201      0.0560
     58  CG        55.5080   60.5040  111.0230 C.ar  201  PHE201     -0.0200
     59  CD1       56.1860   60.4490  112.2330 C.ar  201  PHE201     -0.0042
     60  CD2       55.2810   61.7340  110.4380 C.ar  201  PHE201     -0.0042
     61  CE1       56.6320   61.6100  112.8550 C.ar  201  PHE201     -0.0003
     62  CE2       55.7240   62.9020  111.0490 C.ar  201  PHE201     -0.0003
     63  CZ        56.4000   62.8410  112.2610 C.ar  201  PHE201     -0.0000
     64  N         50.9230   55.4070  116.3760 N.3   229  PHE229     -0.1241
     65  CA        50.0690   56.5620  116.6330 C.3   229  PHE229      0.1605
     66  C         49.3070   57.0510  115.4210 C.2   229  PHE229      0.2264
     67  O         49.6450   56.7190  114.2870 O.2   229  PHE229     -0.2867
     68  CB        50.8790   57.7130  117.2640 C.3   229  PHE229      0.0534
     69  CG        51.7820   58.4600  116.3080 C.ar  229  PHE229     -0.0203
     70  CD1       51.2790   59.4690  115.4930 C.ar  229  PHE229     -0.0042
     71  CD2       53.1540   58.2170  116.2920 C.ar  229  PHE229     -0.0042
     72  CE1       52.1350   60.2280  114.6860 C.ar  229  PHE229     -0.0003
     73  CE2       54.0100   58.9670  115.4910 C.ar  229  PHE229     -0.0003
     74  CZ        53.5020   59.9720  114.6910 C.ar  229  PHE229     -0.0000
     75  N         51.9880   61.6210  127.6900 N.3   298  HIS298     -0.1241
     76  CA        52.3290   61.8400  126.3040 C.3   298  HIS298      0.1621
     77  C         51.6750   60.6980  125.5190 C.2   298  HIS298      0.2264
     78  O         51.1410   60.9120  124.4320 O.2   298  HIS298     -0.2867
     79  CB        53.8480   61.8180  126.1560 C.3   298  HIS298      0.0745
     80  CG        54.3220   62.0160  124.7550 C.ar  298  HIS298      0.0817
     81  ND1       53.9650   63.1120  123.9960 N.ar  298  HIS298     -0.2268
     82  CD2       55.1250   61.2550  123.9730 C.ar  298  HIS298      0.1154
     83  CE1       54.5300   63.0170  122.8050 C.ar  298  HIS298      0.1986
     84  NE2       55.2380   61.9000  122.7640 N.ar  298  HIS298     -0.2212
     85  N         47.7520   62.1060  117.5850 N.3   333  HIS333     -0.1241
     86  CA        48.9870   62.8290  117.8750 C.3   333  HIS333      0.1621
     87  C         49.1510   64.0630  116.9770 C.2   333  HIS333      0.2264
     88  O         49.5110   63.9380  115.8060 O.2   333  HIS333     -0.2867
     89  CB        50.1460   61.8590  117.6700 C.3   333  HIS333      0.0745
     90  CG        51.4590   62.3510  118.1790 C.ar  333  HIS333      0.0817
     91  ND1       51.6410   63.6210  118.6750 N.ar  333  HIS333     -0.2268
     92  CD2       52.6640   61.7410  118.2560 C.ar  333  HIS333      0.1154
     93  CE1       52.9020   63.7740  119.0360 C.ar  333  HIS333      0.1986
     94  NE2       53.5430   62.6460  118.7910 N.ar  333  HIS333     -0.2212
     95  N         51.4070   66.2290  116.9990 N.3   335  LEU335     -0.1245
     96  CA        52.8070   66.6170  116.9080 C.3   335  LEU335      0.1561
     97  C         53.1610   67.9790  117.5110 C.2   335  LEU335      0.2260
     98  O         53.1630   68.1380  118.7250 O.2   335  LEU335     -0.2867
     99  CB        53.2350   66.5750  115.4430 C.3   335  LEU335      0.0270
    100  CG        52.8400   65.3140  114.6800 C.3   335  LEU335      0.0019
    101  CD1       53.3740   65.4180  113.2680 C.3   335  LEU335      0.0001
    102  CD2       53.3860   64.0730  115.3610 C.3   335  LEU335      0.0001
    103  N         57.1450   64.4190  124.9570 N.3   390  PHE390     -0.1227
    104  CA        58.4690   63.9060  124.6280 C.3   390  PHE390      0.1736
    105  C         58.5710   63.7730  123.1170 C.2   390  PHE390      0.2596
    106  O         57.7190   63.1550  122.4780 O.2   390  PHE390     -0.2718
    107  CB        58.7010   62.5400  125.2810 C.3   390  PHE390      0.0547
    108  CG        58.3610   62.5000  126.7380 C.ar  390  PHE390     -0.0202
    109  CD1       58.8570   63.4640  127.6090 C.ar  390  PHE390     -0.0042
    110  CD2       57.5360   61.5020  127.2430 C.ar  390  PHE390     -0.0042
    111  CE1       58.5330   63.4360  128.9690 C.ar  390  PHE390     -0.0003
    112  CE2       57.2040   61.4630  128.5980 C.ar  390  PHE390     -0.0003
    113  CZ        57.7020   62.4310  129.4640 C.ar  390  PHE390     -0.0000
    114  N         59.6080   64.3520  122.5310 N.am  391  GLY391     -0.1942
    115  CA        59.7340   64.2610  121.0940 C.3   391  GLY391      0.2014
    116  C         60.9780   63.5340  120.6470 C.2   391  GLY391      0.2638
    117  O         61.8250   63.1720  121.4680 O.2   391  GLY391     -0.2714
    118  N         61.0750   63.3100  119.3380 N.am  392  PHE392     -0.1973
    119  CA        62.2290   62.6570  118.7490 C.3   392  PHE392      0.1639
    120  C         63.4410   63.5260  119.0740 C.2   392  PHE392      0.2290
    121  O         63.3180   64.7440  119.2670 O.2   392  PHE392     -0.2864
    122  CB        62.0750   62.5540  117.2280 C.3   392  PHE392      0.0560
    123  CG        61.0860   61.5180  116.7760 C.ar  392  PHE392     -0.0200
    124  CD1       60.8750   61.2970  115.4180 C.ar  392  PHE392     -0.0042
    125  CD2       60.3480   60.7770  117.6980 C.ar  392  PHE392     -0.0042
    126  CE1       59.9410   60.3550  114.9800 C.ar  392  PHE392     -0.0003
    127  CE2       59.4080   59.8300  117.2710 C.ar  392  PHE392     -0.0003
    128  CZ        59.2040   59.6200  115.9100 C.ar  392  PHE392     -0.0000
@<TRIPOS>BOND
     1    12    11    2
     2    11    10    1
     3    10    13    1
     4    10     9    1
     5    13    14    1
     6    36    37    1
     7    51    50   ar
     8     9    15    1
     9    49    50    1
    10    49    48    1
    11    50    52   ar
    12    44    45    1
    13    37    38    1
    14    37    40    1
    15    14    15    1
    16    45    48    1
    17    45    46    1
    18    38    39    2
    19    40    41    1
    20    46    47    2
    21    46    53   am
    22    53    54    1
    23    41    42    1
    24     8     7    2
    25    43    42    1
    26    55    54    1
    27    55    56    2
    28     7     6    1
    29    54    57    1
    30    57    58    1
    31    60    58   ar
    32    60    62   ar
    33     6     5    1
    34    58    59   ar
    35    62    63   ar
    36    29    30    2
    37    29    28    1
    38     5     3   am
    39    35    33   ar
    40    59    61   ar
    41    63    61   ar
    42    28    31    1
    43    28    27    1
    44    32    33    1
    45    32    31    1
    46     4     3    2
    47     3     2    1
    48    33    34   ar
    49   101   100    1
    50     2     1    1
    51    67    66    2
    52   100   102    1
    53   100    99    1
    54    72    74   ar
    55    72    70   ar
    56    74    73   ar
    57   126   124   ar
    58   126   128   ar
    59   124   123   ar
    60    66    65    1
    61    99    96    1
    62    73    71   ar
    63    70    69   ar
    64    88    87    2
    65   128   127   ar
    66    71    69   ar
    67    69    68    1
    68    64    65    1
    69    65    68    1
    70   123   122    1
    71   123   125   ar
    72    96    95    1
    73    96    97    1
    74    87    86    1
    75   122   119    1
    76   127   125   ar
    77    97    98    2
    78    85    86    1
    79    17    20    1
    80    17    16    1
    81    17    18    1
    82    89    86    1
    83    89    90    1
    84    90    92   ar
    85    90    91   ar
    86    92    94   ar
    87    18    19    2
    88    18    21   am
    89    91    93   ar
    90   119   120    1
    91   119   118    1
    92    94    93   ar
    93    21    22    1
    94   120   121    2
    95    26    25    1
    96   118   116   am
    97    22    25    1
    98    22    23    1
    99   116   115    1
   100   116   117    2
   101    23    24    2
   102   115   114    1
   103   106   105    2
   104   114   105   am
   105    84    83   ar
   106    84    82   ar
   107    83    81   ar
   108   105   104    1
   109    82    80   ar
   110    81    80   ar
   111    78    77    2
   112   104   103    1
   113   104   107    1
   114    80    79    1
   115   107   108    1
   116    77    76    1
   117    79    76    1
   118    76    75    1
   119   108   110   ar
   120   108   109   ar
   121   110   112   ar
   122   109   111   ar
   123   112   113   ar
   124   111   113   ar
