@<TRIPOS>MOLECULE
tmp/1f92A00.pdb
 196 191 0 0 0
SMALL
GASTEIGER

@<TRIPOS>ATOM
      1  N         22.3870    9.1130   36.8720 N.3    46  HIS46      -0.1241
      2  CA        22.8120   10.2230   36.0100 C.3    46  HIS46       0.1621
      3  C         21.9280   10.4320   34.7850 C.2    46  HIS46       0.2264
      4  O         21.8950   11.5220   34.2130 O.2    46  HIS46      -0.2867
      5  CB        24.2900   10.0880   35.6220 C.3    46  HIS46       0.0745
      6  CG        24.5340    9.3830   34.3220 C.ar   46  HIS46       0.0817
      7  ND1       25.1190    8.1360   34.2530 N.ar   46  HIS46      -0.2268
      8  CD2       24.3390    9.7780   33.0410 C.ar   46  HIS46       0.1154
      9  CE1       25.2760    7.7950   32.9880 C.ar   46  HIS46       0.1986
     10  NE2       24.8110    8.7730   32.2320 N.ar   46  HIS46      -0.2212
     11  N         18.7640   12.3640   36.8180 N.3    49  ILE49      -0.1231
     12  CA        19.0220   13.4400   37.7770 C.3    49  ILE49       0.1692
     13  C         18.4980   14.8440   37.4160 C.2    49  ILE49       0.2592
     14  O         17.9570   15.5320   38.2840 O.2    49  ILE49      -0.2718
     15  CB        20.5290   13.4980   38.1500 C.3    49  ILE49       0.0266
     16  CG1       20.7510   14.3480   39.4030 C.3    49  ILE49       0.0019
     17  CG2       21.3320   14.0750   37.0130 C.3    49  ILE49       0.0020
     18  CD1       20.1270   13.7780   40.6580 C.3    49  ILE49       0.0001
     19  N         18.6130   15.2460   36.1480 N.am   50  ASP50      -0.1974
     20  CA        18.1560   16.5720   35.7040 C.3    50  ASP50       0.1709
     21  C         16.6420   16.6990   35.5010 C.2    50  ASP50       0.2293
     22  O         16.0890   17.7960   35.5580 O.2    50  ASP50      -0.2864
     23  CB        18.8760   16.9940   34.4190 C.3    50  ASP50       0.1436
     24  CG        20.3830   17.1320   34.6010 C.2    50  ASP50       0.3671
     25  OD1       20.8270   17.6730   35.6380 O.co2  50  ASP50      -0.2456
     26  OD2       21.1290   16.7030   33.6960 O.co2  50  ASP50      -0.2456
     27  N         24.3250   10.3740   45.0330 N.3    87  TYR87      -0.1241
     28  CA        24.8940   10.5260   43.6970 C.3    87  TYR87       0.1605
     29  C         25.6320   11.8540   43.5340 C.2    87  TYR87       0.2264
     30  O         25.1380   12.9110   43.9370 O.2    87  TYR87      -0.2867
     31  CB        23.8090   10.3870   42.6160 C.3    87  TYR87       0.0534
     32  CG        24.2680   10.7950   41.2280 C.ar   87  TYR87      -0.0201
     33  CD1       24.9150    9.8930   40.3820 C.ar   87  TYR87      -0.0009
     34  CD2       24.0890   12.1050   40.7760 C.ar   87  TYR87      -0.0009
     35  CE1       25.3730   10.2870   39.1240 C.ar   87  TYR87       0.0417
     36  CE2       24.5450   12.5070   39.5230 C.ar   87  TYR87       0.0417
     37  CZ        25.1840   11.5940   38.7030 C.ar   87  TYR87       0.1957
     38  OH        25.6280   11.9890   37.4620 O.3    87  TYR87      -0.2866
     39  N         28.7880   13.8560   40.7230 N.3    89  ALA89      -0.1245
     40  CA        29.5620   13.7810   39.4910 C.3    89  ALA89       0.1562
     41  C         30.7600   14.7210   39.5110 C.2    89  ALA89       0.2260
     42  O         30.6060   15.9410   39.6190 O.2    89  ALA89      -0.2867
     43  CB        28.6720   14.0820   38.2910 C.3    89  ALA89       0.0290
     44  N         34.9130   15.3250   37.7350 N.3    91  THR91      -0.1203
     45  CA        35.4520   15.5840   36.4000 C.3    91  THR91       0.1994
     46  C         35.0400   14.4850   35.4170 C.2    91  THR91       0.2617
     47  O         34.4920   14.7650   34.3480 O.2    91  THR91      -0.2717
     48  CB        37.0040   15.6800   36.4310 C.3    91  THR91       0.1784
     49  OG1       37.4150   16.6040   37.4470 O.3    91  THR91      -0.2211
     50  CG2       37.5480   16.1560   35.0890 C.3    91  THR91       0.0376
     51  N         35.3030   13.2350   35.7900 N.am   92  LEU92      -0.1979
     52  CA        34.9720   12.0880   34.9520 C.3    92  LEU92       0.1596
     53  C         34.0990   11.0800   35.6930 C.2    92  LEU92       0.2287
     54  O         33.1140   10.5770   35.1500 O.2    92  LEU92      -0.2864
     55  CB        36.2520   11.3810   34.4950 C.3    92  LEU92       0.0297
     56  CG        37.2600   12.1220   33.6150 C.3    92  LEU92       0.0022
     57  CD1       38.5510   11.3240   33.5540 C.3    92  LEU92       0.0001
     58  CD2       36.6940   12.3410   32.2200 C.3    92  LEU92       0.0001
     59  N         31.4930    9.2030   38.1230 N.3    94  HIS94      -0.1241
     60  CA        30.1010    9.3960   38.5150 C.3    94  HIS94       0.1621
     61  C         29.8030    8.4200   39.6470 C.2    94  HIS94       0.2264
     62  O         29.6940    7.2100   39.4350 O.2    94  HIS94      -0.2867
     63  CB        29.1630    9.1550   37.3320 C.3    94  HIS94       0.0745
     64  CG        29.1620   10.2640   36.3250 C.ar   94  HIS94       0.0817
     65  ND1       28.0010   10.8140   35.8280 N.ar   94  HIS94      -0.2268
     66  CD2       30.1790   10.9290   35.7260 C.ar   94  HIS94       0.1154
     67  CE1       28.3020   11.7700   34.9680 C.ar   94  HIS94       0.1986
     68  NE2       29.6150   11.8590   34.8880 N.ar   94  HIS94      -0.2212
     69  N         25.7250    5.2390   20.5910 N.3   142  LYS142     -0.1245
     70  CA        26.5030    5.5600   19.4010 C.3   142  LYS142      0.1561
     71  C         27.5050    4.4730   18.9990 C.2   142  LYS142      0.2260
     72  O         28.0540    3.7680   19.8490 O.2   142  LYS142     -0.2867
     73  CB        27.2280    6.8890   19.6200 C.3   142  LYS142      0.0271
     74  CG        26.2920    8.0760   19.6250 C.3   142  LYS142      0.0035
     75  CD        26.8300    9.2690   20.3820 C.3   142  LYS142      0.0206
     76  CE        28.1650    9.7370   19.8630 C.3   142  LYS142      0.1093
     77  NZ        28.5350   11.0450   20.4900 N.3   142  LYS142     -0.1314
     78  N         33.6910   -0.9840   22.7120 N.3   192  ASP192     -0.1225
     79  CA        33.3480   -0.3610   23.9900 C.3   192  ASP192      0.1805
     80  C         31.9460    0.2040   23.9280 C.2   192  ASP192      0.2598
     81  O         31.3320    0.2940   22.8570 O.2   192  ASP192     -0.2718
     82  CB        34.3300    0.7730   24.2900 C.3   192  ASP192      0.1424
     83  CG        34.1900    1.3350   25.6950 C.2   192  ASP192      0.3668
     84  OD1       33.6060    0.6830   26.5910 O.co2 192  ASP192     -0.2456
     85  OD2       34.7070    2.4450   25.9070 O.co2 192  ASP192     -0.2456
     86  N         31.4110    0.4920   25.1070 N.am  193  SER193     -0.1938
     87  CA        30.1080    1.1050   25.2180 C.3   193  SER193      0.2055
     88  C         30.4180    2.5870   24.9940 C.2   193  SER193      0.2643
     89  O         31.5770    3.0060   25.0850 O.2   193  SER193     -0.2714
     90  CB        29.5230    0.8510   26.6080 C.3   193  SER193      0.2130
     91  OG        30.4640    1.1290   27.6340 O.3   193  SER193     -0.2179
     92  N         29.3990    3.3810   24.7010 N.am  194  CYS194     -0.1953
     93  CA        29.6130    4.7920   24.4150 C.3   194  CYS194      0.1843
     94  C         28.3980    5.5810   24.8870 C.2   194  CYS194      0.2625
     95  O         27.5220    5.0320   25.5530 O.2   194  CYS194     -0.2714
     96  CB        29.8290    4.9960   22.9130 C.3   194  CYS194      0.0997
     97  SG        30.3830    6.6620   22.4260 S.3   194  CYS194     -0.0797
     98  N         28.3310    6.8610   24.5280 N.am  195  GLN195     -0.1977
     99  CA        27.1760    7.6830   24.9010 C.3   195  GLN195      0.1601
    100  C         25.8740    7.0490   24.4130 C.2   195  GLN195      0.2287
    101  O         25.7180    6.7420   23.2270 O.2   195  GLN195     -0.2864
    102  CB        27.3080    9.1170   24.3600 C.3   195  GLN195      0.0394
    103  CG        26.0380    9.9670   24.5380 C.3   195  GLN195      0.0908
    104  CD        26.3200   11.4640   24.5770 C.2   195  GLN195      0.2608
    105  OE1       26.4860   12.1070   23.5370 O.2   195  GLN195     -0.2717
    106  NE2       26.3720   12.0260   25.7880 N.am  195  GLN195     -0.0878
    107  N         24.5140    4.1400   28.5470 N.3   198  SER198     -0.1217
    108  CA        24.3990    4.3740   29.9780 C.3   198  SER198      0.1889
    109  C         23.1510    3.7540   30.5630 C.2   198  SER198      0.2288
    110  O         22.1000    3.7100   29.9130 O.2   198  SER198     -0.2866
    111  CB        24.4040    5.8680   30.2930 C.3   198  SER198      0.2089
    112  OG        25.6970    6.4230   30.1540 O.3   198  SER198     -0.2183
    113  N         26.3150    0.3990   32.9870 N.3   216  VAL216     -0.1231
    114  CA        27.1130    1.3290   32.1960 C.3   216  VAL216      0.1692
    115  C         26.9610    2.7150   32.8050 C.2   216  VAL216      0.2593
    116  O         25.8750    3.2880   32.7730 O.2   216  VAL216     -0.2718
    117  CB        26.6590    1.3400   30.7230 C.3   216  VAL216      0.0266
    118  CG1       27.5680    2.2420   29.9020 C.3   216  VAL216      0.0020
    119  CG2       26.6710   -0.0710   30.1590 C.3   216  VAL216      0.0020
    120  N         28.0510    3.2350   33.3680 N.am  217  SER217     -0.1938
    121  CA        28.0420    4.5360   34.0320 C.3   217  SER217      0.2055
    122  C         28.8060    5.6510   33.3100 C.2   217  SER217      0.2643
    123  O         28.1990    6.6170   32.8400 O.2   217  SER217     -0.2714
    124  CB        28.5690    4.3860   35.4650 C.3   217  SER217      0.2130
    125  OG        28.4470    5.5910   36.2040 O.3   217  SER217     -0.2179
    126  N         30.1280    5.5240   33.2260 N.am  218  TRP218     -0.1959
    127  CA        30.9460    6.5540   32.5860 C.3   218  TRP218      0.1771
    128  C         32.2180    6.0460   31.9100 C.2   218  TRP218      0.2620
    129  O         32.5510    4.8610   31.9790 O.2   218  TRP218     -0.2715
    130  CB        31.3100    7.6480   33.6000 C.3   218  TRP218      0.0590
    131  CG        32.0780    7.1530   34.8000 C.ar  218  TRP218      0.0006
    132  CD1       31.5630    6.5480   35.9100 C.ar  218  TRP218      0.0946
    133  CD2       33.4960    7.2290   35.0090 C.ar  218  TRP218      0.0152
    134  NE1       32.5670    6.2430   36.7960 N.ar  218  TRP218     -0.2442
    135  CE2       33.7630    6.6500   36.2690 C.ar  218  TRP218      0.0810
    136  CE3       34.5650    7.7320   34.2540 C.ar  218  TRP218      0.0012
    137  CZ2       35.0580    6.5590   36.7940 C.ar  218  TRP218      0.0191
    138  CZ3       35.8530    7.6400   34.7770 C.ar  218  TRP218      0.0001
    139  CH2       36.0860    7.0570   36.0360 C.ar  218  TRP218      0.0015
    140  N         32.9270    6.9690   31.2680 N.am  219  GLY219     -0.1940
    141  CA        34.1630    6.6390   30.5840 C.3   219  GLY219      0.2014
    142  C         34.6850    7.8010   29.7580 C.2   219  GLY219      0.2639
    143  O         33.9060    8.6130   29.2560 O.2   219  GLY219     -0.2714
    144  N         36.0070    7.9090   29.6600 N.am  220  ARG220     -0.1963
    145  CA        36.6360    8.9680   28.8770 C.3   220  ARG220      0.1729
    146  C         36.5400    8.6090   27.3970 C.2   220  ARG220      0.2617
    147  O         37.1760    7.6580   26.9370 O.2   220  ARG220     -0.2715
    148  CB        38.1020    9.1440   29.2910 C.3   220  ARG220      0.0348
    149  CG        38.9020   10.1290   28.4400 C.3   220  ARG220      0.0492
    150  CD        38.2120   11.4820   28.3110 C.3   220  ARG220      0.2205
    151  NE        38.3390   12.0300   26.9620 N.pl3 220  ARG220     -0.0865
    152  CZ        37.7760   13.1650   26.5540 C.cat 220  ARG220      0.5346
    153  NH1       36.5440   13.4770   26.9330 N.pl3 220  ARG220      0.1354
    154  NH2       38.4510   13.9940   25.7690 N.pl3 220  ARG220      0.1354
    155  N         35.7490    9.3830   26.6600 N.am  221  GLY221     -0.1940
    156  CA        35.5640    9.1200   25.2460 C.3   221  GLY221      0.2014
    157  C         34.8950    7.7750   25.0410 C.2   221  GLY221      0.2639
    158  O         34.1280    7.3180   25.8900 O.2   221  GLY221     -0.2714
    159  N         35.1810    7.1400   23.9110 N.am  222  CYS222     -0.1967
    160  CA        34.6100    5.8360   23.6040 C.3   222  CYS222      0.1712
    161  C         35.6380    4.9840   22.8710 C.2   222  CYS222      0.2296
    162  O         36.0530    5.3110   21.7580 O.2   222  CYS222     -0.2864
    163  CB        33.3380    5.9920   22.7640 C.3   222  CYS222      0.0983
    164  SG        32.0320    6.9810   23.5670 S.3   222  CYS222     -0.0798
    165  N         41.4100    3.8040   28.3530 N.3   227  LYS227     -0.1245
    166  CA        40.2690    4.5020   28.9420 C.3   227  LYS227      0.1561
    167  C         39.0630    3.5640   28.9980 C.2   227  LYS227      0.2260
    168  O         38.0360    3.8120   28.3660 O.2   227  LYS227     -0.2867
    169  CB        39.9370    5.7540   28.1290 C.3   227  LYS227      0.0271
    170  CG        41.0670    6.7630   28.0550 C.3   227  LYS227      0.0035
    171  CD        41.4090    7.2890   29.4260 C.3   227  LYS227      0.0206
    172  CE        42.7040    8.0710   29.3880 C.3   227  LYS227      0.1093
    173  NZ        43.2310    8.3110   30.7630 N.3   227  LYS227     -0.1314
    174  N         35.6580    1.3680   30.1300 N.3   229  GLY229     -0.1210
    175  CA        34.3260    1.8120   30.4860 C.3   229  GLY229      0.1956
    176  C         34.1630    1.5320   31.9690 C.2   229  GLY229      0.2612
    177  O         34.5680    0.4710   32.4530 O.2   229  GLY229     -0.2717
    178  N         33.6280    2.4910   32.7110 N.am  230  VAL230     -0.1965
    179  CA        33.4390    2.2930   34.1410 C.3   230  VAL230      0.1727
    180  C         32.0020    1.9200   34.4160 C.2   230  VAL230      0.2616
    181  O         31.0830    2.5480   33.8950 O.2   230  VAL230     -0.2715
    182  CB        33.7870    3.5380   34.9380 C.3   230  VAL230      0.0290
    183  CG1       33.7600    3.2160   36.4250 C.3   230  VAL230      0.0023
    184  CG2       35.1460    4.0510   34.5210 C.3   230  VAL230      0.0023
    185  N         31.8170    0.9080   35.2540 N.am  231  TYR231     -0.1974
    186  CA        30.4890    0.4230   35.5920 C.3   231  TYR231      0.1639
    187  C         30.2000    0.4610   37.0860 C.2   231  TYR231      0.2290
    188  O         31.1060    0.3440   37.9120 O.2   231  TYR231     -0.2864
    189  CB        30.3280   -1.0010   35.0660 C.3   231  TYR231      0.0560
    190  CG        30.4970   -1.1060   33.5670 C.ar  231  TYR231     -0.0198
    191  CD1       31.7530   -0.9780   32.9760 C.ar  231  TYR231     -0.0009
    192  CD2       29.3960   -1.2970   32.7360 C.ar  231  TYR231     -0.0009
    193  CE1       31.9080   -1.0320   31.5980 C.ar  231  TYR231      0.0417
    194  CE2       29.5400   -1.3520   31.3490 C.ar  231  TYR231      0.0417
    195  CZ        30.8000   -1.2180   30.7880 C.ar  231  TYR231      0.1957
    196  OH        30.9480   -1.2630   29.4250 O.3   231  TYR231     -0.2866
@<TRIPOS>BOND
     1    71    70    1
     2    71    72    2
     3    70    73    1
     4    70    69    1
     5    73    74    1
     6    74    75    1
     7    76    75    1
     8    76    77    1
     9   162   161    2
    10    97    96    1
    11    97   164    1
    12    78    79    1
    13   163   164    1
    14   163   160    1
    15    81    80    2
    16   161   160    1
    17    96    93    1
    18   101   100    2
    19   105   104    2
    20   160   159    1
    21   159   157   am
    22    80    79    1
    23    80    86   am
    24    79    82    1
    25    82    83    1
    26   102   103    1
    27   102    99    1
    28   100    99    1
    29    93    92    1
    30    93    94    1
    31    98    94   am
    32    98    99    1
    33   103   104    1
    34   104   106   am
    35    92    88   am
    36    94    95    2
    37    88    89    2
    38    88    87    1
    39   157   156    1
    40   157   158    2
    41    86    87    1
    42    87    90    1
    43   156   155    1
    44    83    85   ar
    45    83    84   ar
    46   154   152    1
    47   152   153    1
    48   152   151    2
    49    90    91    1
    50   155   146   am
    51   147   146    2
    52   151   150    1
    53   146   145    1
    54   170   169    1
    55   170   171    1
    56   169   166    1
    57   150   149    1
    58   165   166    1
    59   168   167    2
    60   149   148    1
    61   107   108    1
    62   145   148    1
    63   145   144    1
    64   166   167    1
    65   143   142    2
    66   172   171    1
    67   172   173    1
    68   196   195    1
    69   144   142   am
    70   142   141    1
    71   118   117    1
    72   110   109    2
    73   108   111    1
    74   108   109    1
    75   174   175    1
    76   112   111    1
    77   119   117    1
    78   175   176    1
    79   141   140    1
    80   117   114    1
    81   195   194   ar
    82   195   193   ar
    83   140   128   am
    84   194   192   ar
    85   193   191   ar
    86   128   129    2
    87   128   127    1
    88   176   177    2
    89   176   178   am
    90   114   115    1
    91   114   113    1
    92    58    56    1
    93    10     9   ar
    94    10     8   ar
    95   127   126    1
    96   127   130    1
    97   178   179    1
    98   192   190   ar
    99   116   115    2
   100   115   120   am
   101   123   122    2
   102   191   190   ar
   103     9     7   ar
   104     8     6   ar
   105   126   122   am
   106   122   121    1
   107   120   121    1
   108    57    56    1
   109   190   189    1
   110   130   131    1
   111    56    55    1
   112    26    24   ar
   113   181   180    2
   114   121   124    1
   115   179   180    1
   116   179   182    1
   117     4     3    2
   118     7     6   ar
   119   136   138   ar
   120   136   133   ar
   121     6     5    1
   122    47    46    2
   123   180   185   am
   124    23    24    1
   125    23    20    1
   126    55    52    1
   127   184   182    1
   128    24    25   ar
   129   138   139   ar
   130     3     2    1
   131   131   133   ar
   132   131   132   ar
   133    68    67   ar
   134    68    66   ar
   135   182   183    1
   136    52    53    1
   137    52    51    1
   138    67    65   ar
   139   133   135   ar
   140   189   186    1
   141    50    48    1
   142    54    53    2
   143   185   186    1
   144    46    51   am
   145    46    45    1
   146   124   125    1
   147    21    22    2
   148    21    20    1
   149   186   187    1
   150     5     2    1
   151    20    19    1
   152    66    64   ar
   153    65    64   ar
   154   132   134   ar
   155     2     1    1
   156   139   137   ar
   157    19    13   am
   158   135   137   ar
   159   135   134   ar
   160    64    63    1
   161    45    48    1
   162    45    44    1
   163    48    49    1
   164    11    12    1
   165    17    15    1
   166   187   188    2
   167    63    60    1
   168    13    12    1
   169    13    14    2
   170    38    37    1
   171    12    15    1
   172    59    60    1
   173    15    16    1
   174    43    40    1
   175    60    61    1
   176    37    35   ar
   177    37    36   ar
   178    35    33   ar
   179    16    18    1
   180    62    61    2
   181    40    41    1
   182    40    39    1
   183    41    42    2
   184    36    34   ar
   185    33    32   ar
   186    34    32   ar
   187    32    31    1
   188    31    28    1
   189    29    28    1
   190    29    30    2
   191    28    27    1
