@<TRIPOS>MOLECULE
tmp/1f99B01.pdb
 122 116 0 0 0
SMALL
GASTEIGER

@<TRIPOS>ATOM
      1  N         32.8500  -17.2080   58.7780 N.3    32  SER32      -0.1202
      2  CA        33.2980  -18.3870   59.5100 C.3    32  SER32       0.2020
      3  C         32.4990  -18.6180   60.7850 C.2    32  SER32       0.2618
      4  O         32.1120  -19.7470   61.0880 O.2    32  SER32      -0.2717
      5  CB        34.7650  -18.2640   59.8910 C.3    32  SER32       0.2103
      6  OG        35.5820  -19.1920   59.1950 O.3    32  SER32      -0.2182
      7  N         32.1920  -17.5710   61.5400 N.am   33  GLU33      -0.1979
      8  CA        31.4180  -17.7040   62.7620 C.3    33  GLU33       0.1602
      9  C         29.9120  -17.7150   62.5520 C.2    33  GLU33       0.2287
     10  O         29.1430  -17.5300   63.5080 O.2    33  GLU33      -0.2864
     11  CB        31.7420  -16.5710   63.6870 C.3    33  GLU33       0.0415
     12  CG        33.0410  -16.7180   64.4340 C.3    33  GLU33       0.1163
     13  CD        32.9950  -15.9180   65.7270 C.2    33  GLU33       0.3649
     14  OE1       33.2520  -16.5020   66.7760 O.co2  33  GLU33      -0.2457
     15  OE2       32.6890  -14.7260   65.6900 O.co2  33  GLU33      -0.2457
     16  N         27.5100  -20.0740   61.7380 N.3    35  ASN35      -0.1225
     17  CA        26.7760  -21.1160   62.4430 C.3    35  ASN35       0.1785
     18  C         26.4690  -20.7900   63.8920 C.2    35  ASN35       0.2597
     19  O         25.3200  -20.8550   64.3350 O.2    35  ASN35      -0.2718
     20  CB        27.5600  -22.4070   62.4070 C.3    35  ASN35       0.1169
     21  CG        27.4770  -23.1260   61.0750 C.2    35  ASN35       0.2627
     22  OD1       26.5170  -23.0050   60.3180 O.2    35  ASN35      -0.2716
     23  ND2       28.4840  -23.8990   60.7210 N.am   35  ASN35      -0.0877
     24  N         27.4980  -20.3320   64.6110 N.am   36  LYS36      -0.1980
     25  CA        27.3770  -19.9610   66.0120 C.3    36  LYS36       0.1596
     26  C         26.4000  -18.8160   66.2380 C.2    36  LYS36       0.2287
     27  O         25.5340  -18.9300   67.1030 O.2    36  LYS36      -0.2864
     28  CB        28.7020  -19.5200   66.6030 C.3    36  LYS36       0.0298
     29  CG        29.8210  -20.5310   66.6450 C.3    36  LYS36       0.0038
     30  CD        30.7670  -19.9380   67.6590 C.3    36  LYS36       0.0206
     31  CE        32.1650  -20.4550   67.4810 C.3    36  LYS36       0.1093
     32  NZ        32.9700  -19.3160   67.1010 N.3    36  LYS36      -0.1314
     33  N         23.9350  -17.8230   64.3830 N.3    38  LEU38      -0.1231
     34  CA        22.6120  -18.3430   64.1100 C.3    38  LEU38       0.1693
     35  C         22.1150  -19.1300   65.3210 C.2    38  LEU38       0.2592
     36  O         20.9370  -19.0330   65.6750 O.2    38  LEU38      -0.2718
     37  CB        22.7410  -19.1900   62.8720 C.3    38  LEU38       0.0284
     38  CG        22.0600  -18.7870   61.5750 C.3    38  LEU38       0.0019
     39  CD1       21.9290  -17.2870   61.4000 C.3    38  LEU38       0.0001
     40  CD2       22.9090  -19.3640   60.4680 C.3    38  LEU38       0.0001
     41  N         22.9780  -19.8760   66.0240 N.am   39  ASP39      -0.1960
     42  CA        22.5710  -20.5690   67.2410 C.3    39  ASP39       0.1840
     43  C         22.2510  -19.5510   68.3120 C.2    39  ASP39       0.2621
     44  O         21.2050  -19.6470   68.9470 O.2    39  ASP39      -0.2715
     45  CB        23.6600  -21.4910   67.7960 C.3    39  ASP39       0.1450
     46  CG        23.7910  -22.8210   67.0730 C.2    39  ASP39       0.3671
     47  OD1       22.7910  -23.4870   66.8100 O.co2  39  ASP39      -0.2456
     48  OD2       24.9110  -23.2010   66.7790 O.co2  39  ASP39      -0.2456
     49  N         23.0990  -18.5410   68.4690 N.am   40  VAL40      -0.1977
     50  CA        22.9080  -17.4710   69.4340 C.3    40  VAL40       0.1596
     51  C         21.5320  -16.8330   69.3140 C.2    40  VAL40       0.2287
     52  O         20.8090  -16.7630   70.3160 O.2    40  VAL40      -0.2864
     53  CB        23.9880  -16.3920   69.2330 C.3    40  VAL40       0.0276
     54  CG1       23.7590  -15.2080   70.1540 C.3    40  VAL40       0.0022
     55  CG2       25.3350  -16.9690   69.5740 C.3    40  VAL40       0.0022
     56  N         18.9780  -18.0530   67.6720 N.3    42  ASN42      -0.1240
     57  CA        17.9590  -19.0890   67.8070 C.3    42  ASN42       0.1653
     58  C         17.6200  -19.3720   69.2680 C.2    42  ASN42       0.2266
     59  O         16.4550  -19.5280   69.6500 O.2    42  ASN42      -0.2867
     60  CB        18.4240  -20.3750   67.1690 C.3    42  ASN42       0.1155
     61  CG        17.2670  -21.3360   66.9960 C.2    42  ASN42       0.2627
     62  OD1       16.1620  -20.9630   66.5960 O.2    42  ASN42      -0.2716
     63  ND2       17.4890  -22.6110   67.2520 N.am   42  ASN42      -0.0877
     64  N         22.4310  -18.4660   76.0740 N.3   142  VAL142     -0.1231
     65  CA        23.2760  -18.6160   74.8960 C.3   142  VAL142      0.1692
     66  C         24.3590  -19.6570   75.1480 C.2   142  VAL142      0.2592
     67  O         24.8460  -20.2900   74.2140 O.2   142  VAL142     -0.2718
     68  CB        23.8700  -17.2220   74.5290 C.3   142  VAL142      0.0266
     69  CG1       24.9380  -17.2460   73.4410 C.3   142  VAL142      0.0020
     70  CG2       22.7260  -16.4290   73.9270 C.3   142  VAL142      0.0020
     71  N         24.7310  -19.8730   76.4090 N.am  143  ASN143     -0.1960
     72  CA        25.6970  -20.9010   76.7230 C.3   143  ASN143      0.1819
     73  C         25.1840  -22.3050   76.9950 C.2   143  ASN143      0.2621
     74  O         26.0010  -23.2100   77.2010 O.2   143  ASN143     -0.2715
     75  CB        26.5370  -20.4570   77.9020 C.3   143  ASN143      0.1195
     76  CG        27.8380  -19.8480   77.4100 C.2   143  ASN143      0.2630
     77  OD1       28.2100  -18.7380   77.7800 O.2   143  ASN143     -0.2716
     78  ND2       28.6260  -20.4830   76.5510 N.am  143  ASN143     -0.0877
     79  N         23.9020  -22.5590   77.0310 N.am  144  ASP144     -0.1957
     80  CA        23.3780  -23.9200   77.2530 C.3   144  ASP144      0.1840
     81  C         23.5820  -24.8220   76.0210 C.2   144  ASP144      0.2622
     82  O         23.2760  -24.4070   74.8780 O.2   144  ASP144     -0.2715
     83  CB        21.8500  -23.8940   77.4950 C.3   144  ASP144      0.1450
     84  CG        21.4040  -23.4220   78.8860 C.2   144  ASP144      0.3671
     85  OD1       20.1720  -23.5700   79.2450 O.co2 144  ASP144     -0.2456
     86  OD2       22.2410  -22.8800   79.6970 O.co2 144  ASP144     -0.2456
     87  N         24.1090  -26.0720   76.2840 N.am  145  THR145     -0.1951
     88  CA        24.2700  -27.0650   75.1900 C.3   145  THR145      0.1897
     89  C         23.2630  -28.2200   75.3380 C.2   145  THR145      0.2313
     90  O         22.9970  -28.7230   76.4460 O.2   145  THR145     -0.2863
     91  CB        25.6440  -27.7030   75.1370 C.3   145  THR145      0.1794
     92  OG1       26.6450  -26.7460   75.4170 O.3   145  THR145     -0.2208
     93  CG2       25.9390  -28.2990   73.7550 C.3   145  THR145      0.0378
     94  N         23.0780  -28.4310   70.1110 N.3   148  THR148     -0.1204
     95  CA        24.0320  -27.5730   69.4050 C.3   148  THR148      0.1979
     96  C         25.4220  -28.1180   69.7560 C.2   148  THR148      0.2460
     97  O         25.5430  -28.7190   70.8330 O.2   148  THR148     -0.2732
     98  CB        23.8500  -26.0400   69.8430 C.3   148  THR148      0.1783
     99  OG1       25.0450  -25.5720   70.4440 O.3   148  THR148     -0.2211
    100  CG2       22.7470  -25.8250   70.8660 C.3   148  THR148      0.0376
    101  N         26.4700  -27.9950   68.9380 N.am  149  PRO149     -0.2717
    102  CA        27.8140  -28.5030   69.2130 C.3   149  PRO149      0.1535
    103  C         28.6120  -27.6090   70.1420 C.2   149  PRO149      0.2598
    104  O         28.5940  -26.4090   69.9410 O.2   149  PRO149     -0.2715
    105  CB        28.4600  -28.6230   67.8590 C.3   149  PRO149      0.0310
    106  CG        27.3080  -28.5360   66.8910 C.3   149  PRO149      0.0237
    107  CD        26.3950  -27.5310   67.5650 C.3   149  PRO149      0.0939
    108  N         29.3410  -28.1700   71.1010 N.am  150  ALA150     -0.1964
    109  CA        30.1340  -27.3740   72.0240 C.3   150  ALA150      0.1728
    110  C         31.3820  -26.7520   71.4040 C.2   150  ALA150      0.2616
    111  O         32.0600  -27.4030   70.5990 O.2   150  ALA150     -0.2715
    112  CB        30.5690  -28.2340   73.1960 C.3   150  ALA150      0.0334
    113  N         31.7160  -25.5280   71.8130 N.am  151  GLY151     -0.1955
    114  CA        32.8700  -24.7930   71.3230 C.3   151  GLY151      0.1869
    115  C         33.0240  -23.4740   72.0790 C.2   151  GLY151      0.2309
    116  O         32.4990  -23.3250   73.1850 O.2   151  GLY151     -0.2863
    117  N         32.0570  -19.5830   72.4860 N.3   153  CYS153     -0.1235
    118  CA        31.2150  -18.4870   72.0110 C.3   153  CYS153      0.1677
    119  C         31.4540  -17.1730   72.7460 C.2   153  CYS153      0.2270
    120  O         30.6580  -16.2330   72.6360 O.2   153  CYS153     -0.2867
    121  CB        29.7390  -18.8500   72.1460 C.3   153  CYS153      0.0956
    122  SG        29.2840  -20.2440   71.1050 S.3   153  CYS153     -0.0801
@<TRIPOS>BOND
     1     1     2    1
     2     6     5    1
     3     2     5    1
     4     2     3    1
     5    22    21    2
     6    40    38    1
     7    23    21   am
     8     3     4    2
     9     3     7   am
    10    21    20    1
    11    39    38    1
    12     7     8    1
    13    38    37    1
    14    16    17    1
    15    20    17    1
    16    17    18    1
    17     9     8    1
    18     9    10    2
    19     8    11    1
    20    37    34    1
    21    11    12    1
    22    18    19    2
    23    18    24   am
    24    34    33    1
    25    34    35    1
    26    12    13    1
    27    24    25    1
    28    35    36    2
    29    35    41   am
    30    15    13   ar
    31    13    14   ar
    32    25    26    1
    33    25    28    1
    34    41    42    1
    35    26    27    2
    36    62    61    2
    37    28    29    1
    38    29    30    1
    39    48    46   ar
    40    47    46   ar
    41   106   107    1
    42   106   105    1
    43    61    60    1
    44    61    63   am
    45    46    45    1
    46    32    31    1
    47    60    57    1
    48    42    45    1
    49    42    43    1
    50    31    30    1
    51   107   101    1
    52    56    57    1
    53    57    58    1
    54   105   102    1
    55    43    49   am
    56    43    44    2
    57    49    50    1
    58   101   102    1
    59   101    96   am
    60   102   103    1
    61    53    50    1
    62    53    55    1
    63    53    54    1
    64    58    59    2
    65    51    50    1
    66    51    52    2
    67    95    96    1
    68    95    98    1
    69    95    94    1
    70    96    97    2
    71    98    99    1
    72    98   100    1
    73   104   103    2
    74   103   108   am
    75   111   110    2
    76   108   109    1
    77   122   121    1
    78   114   113    1
    79   114   115    1
    80   110   113   am
    81   110   109    1
    82   118   121    1
    83   118   117    1
    84   118   119    1
    85   109   112    1
    86   115   116    2
    87   120   119    2
    88    69    68    1
    89    93    91    1
    90    70    68    1
    91    67    66    2
    92    68    65    1
    93    82    81    2
    94    65    66    1
    95    65    64    1
    96    91    88    1
    97    91    92    1
    98    66    71   am
    99    88    89    1
   100    88    87    1
   101    89    90    2
   102    81    87   am
   103    81    80    1
   104    71    72    1
   105    78    76   am
   106    72    73    1
   107    72    75    1
   108    73    79   am
   109    73    74    2
   110    79    80    1
   111    80    83    1
   112    76    77    2
   113    76    75    1
   114    83    84    1
   115    84    85   ar
   116    84    86   ar
