@<TRIPOS>MOLECULE
tmp/1f99B00.pdb
 200 188 0 0 0
SMALL
GASTEIGER

@<TRIPOS>ATOM
      1  N         11.9950   -7.6170   88.1320 N.3    59  LEU59      -0.1245
      2  CA        11.9160   -6.1770   88.2420 C.3    59  LEU59       0.1561
      3  C         10.8310   -5.7900   89.2300 C.2    59  LEU59       0.2260
      4  O         11.1100   -4.9770   90.1100 O.2    59  LEU59      -0.2867
      5  CB        11.5870   -5.5400   86.9020 C.3    59  LEU59       0.0270
      6  CG        11.1860   -4.0600   86.8420 C.3    59  LEU59       0.0019
      7  CD1       12.3540   -3.1640   87.2160 C.3    59  LEU59       0.0001
      8  CD2       10.7220   -3.7450   85.4370 C.3    59  LEU59       0.0001
      9  N          6.2760    0.0050   91.2690 N.3    66  LEU66      -0.1245
     10  CA         5.8650    0.0960   89.8830 C.3    66  LEU66       0.1561
     11  C          4.4440   -0.4290   89.7010 C.2    66  LEU66       0.2260
     12  O          3.6870    0.1350   88.9120 O.2    66  LEU66      -0.2867
     13  CB         6.8460   -0.6900   89.0030 C.3    66  LEU66       0.0270
     14  CG         8.3180   -0.2520   88.9500 C.3    66  LEU66       0.0019
     15  CD1        9.0350   -1.1360   87.9520 C.3    66  LEU66       0.0001
     16  CD2        8.4600    1.2030   88.5250 C.3    66  LEU66       0.0001
     17  N          3.6250    3.2600   87.6780 N.3    72  ASN72      -0.1225
     18  CA         3.5640    3.3570   86.2150 C.3    72  ASN72       0.1785
     19  C          3.2920    2.0320   85.5290 C.2    72  ASN72       0.2597
     20  O          2.9740    2.0190   84.3490 O.2    72  ASN72      -0.2718
     21  CB         4.8610    3.9480   85.6210 C.3    72  ASN72       0.1169
     22  CG         4.7100    4.5320   84.2050 C.2    72  ASN72       0.2627
     23  OD1        4.0570    5.5550   84.0010 O.2    72  ASN72      -0.2716
     24  ND2        5.3180    3.9970   83.1610 N.am   72  ASN72      -0.0877
     25  N          3.3580    0.8960   86.2120 N.am   73  ALA73      -0.1979
     26  CA         2.9570   -0.3410   85.5820 C.3    73  ALA73       0.1597
     27  C          1.6820   -0.8540   86.2450 C.2    73  ALA73       0.2287
     28  O          1.3720   -2.0330   86.1140 O.2    73  ALA73      -0.2864
     29  CB         4.0670   -1.3750   85.7150 C.3    73  ALA73       0.0319
     30  N         -3.5600   -2.0660   81.1060 N.3    77  ARG77      -0.1231
     31  CA        -3.0360   -1.3840   79.9240 C.3    77  ARG77       0.1694
     32  C         -1.5700   -0.9850   80.0940 C.2    77  ARG77       0.2591
     33  O         -0.7430   -1.1770   79.1940 O.2    77  ARG77      -0.2718
     34  CB        -3.8930   -0.1420   79.6570 C.3    77  ARG77       0.0321
     35  CG        -3.6250    0.5810   78.3430 C.3    77  ARG77       0.0489
     36  CD        -4.4100    1.8960   78.2600 C.3    77  ARG77       0.2205
     37  NE        -5.8620    1.7680   78.1240 N.pl3  77  ARG77      -0.0865
     38  CZ        -6.4820    1.5730   76.9470 C.cat  77  ARG77       0.5346
     39  NH1       -5.8110    1.4690   75.7970 N.pl3  77  ARG77       0.1354
     40  NH2       -7.8170    1.5180   76.8930 N.pl3  77  ARG77       0.1354
     41  N         -1.2110   -0.4670   81.2640 N.am   78  ARG78      -0.1980
     42  CA         0.1670   -0.0650   81.4770 C.3    78  ARG78       0.1597
     43  C          1.0880   -1.2540   81.6460 C.2    78  ARG78       0.2287
     44  O          2.1910   -1.2550   81.0910 O.2    78  ARG78      -0.2864
     45  CB         0.2770    0.8120   82.6920 C.3    78  ARG78       0.0334
     46  CG        -0.3580    2.1570   82.4270 C.3    78  ARG78       0.0492
     47  CD         0.2340    3.1560   83.3930 C.3    78  ARG78       0.2205
     48  NE        -0.8050    4.0110   83.9310 N.pl3  78  ARG78      -0.0865
     49  CZ        -1.1920    3.9360   85.2080 C.cat  78  ARG78       0.5346
     50  NH1       -0.6520    3.0870   86.0770 N.pl3  78  ARG78       0.1354
     51  NH2       -2.1780    4.7120   85.6320 N.pl3  78  ARG78       0.1354
     52  N          1.7040   -2.6100   78.2220 N.3    81  ALA81      -0.1231
     53  CA         2.6220   -1.7420   77.4950 C.3    81  ALA81       0.1694
     54  C          4.0670   -1.9540   77.9480 C.2    81  ALA81       0.2592
     55  O          5.0050   -1.9570   77.1420 O.2    81  ALA81      -0.2718
     56  CB         2.2400   -0.2940   77.7260 C.3    81  ALA81       0.0304
     57  N          4.2620   -2.2110   79.2420 N.am   82  CYS82      -0.1970
     58  CA         5.5790   -2.4920   79.7850 C.3    82  CYS82       0.1712
     59  C          6.1250   -3.8540   79.3480 C.2    82  CYS82       0.2296
     60  O          7.3070   -3.9660   79.0030 O.2    82  CYS82      -0.2864
     61  CB         5.5070   -2.4020   81.3090 C.3    82  CYS82       0.0983
     62  SG         7.0970   -2.8400   82.0650 S.3    82  CYS82      -0.0798
     63  N          5.3590   -5.3330   76.5890 N.3    84  ARG84      -0.1231
     64  CA         5.5200   -5.1100   75.1630 C.3    84  ARG84       0.1694
     65  C          6.8630   -4.4580   74.8900 C.2    84  ARG84       0.2592
     66  O          7.6180   -4.9250   74.0380 O.2    84  ARG84      -0.2718
     67  CB         4.4030   -4.2100   74.6570 C.3    84  ARG84       0.0321
     68  CG         4.5170   -3.8210   73.1860 C.3    84  ARG84       0.0489
     69  CD         3.8530   -2.4680   72.9470 C.3    84  ARG84       0.2205
     70  NE         4.4110   -1.4190   73.7900 N.pl3  84  ARG84      -0.0865
     71  CZ         3.7640   -0.2710   74.0340 C.cat  84  ARG84       0.5346
     72  NH1        2.5700   -0.0140   73.5100 N.pl3  84  ARG84       0.1354
     73  NH2        4.2860    0.6230   74.8660 N.pl3  84  ARG84       0.1354
     74  N          7.2090   -3.4000   75.6160 N.am   85  ASP85      -0.1960
     75  CA         8.4890   -2.7510   75.4090 C.3    85  ASP85       0.1840
     76  C          9.6900   -3.6340   75.6630 C.2    85  ASP85       0.2621
     77  O         10.6810   -3.5610   74.9300 O.2    85  ASP85      -0.2715
     78  CB         8.5790   -1.5390   76.3000 C.3    85  ASP85       0.1450
     79  CG         7.6070   -0.4300   75.9350 C.2    85  ASP85       0.3671
     80  OD1        7.6080    0.5680   76.6420 O.co2  85  ASP85      -0.2456
     81  OD2        6.8690   -0.5420   74.9610 O.co2  85  ASP85      -0.2456
     82  N          9.6230   -4.5270   76.6480 N.am   86  MET86      -0.1977
     83  CA        10.7560   -5.3830   76.9640 C.3    86  MET86       0.1605
     84  C         11.0060   -6.3360   75.8060 C.2    86  MET86       0.2287
     85  O         12.1400   -6.6290   75.4120 O.2    86  MET86      -0.2864
     86  CB        10.4630   -6.1600   78.2470 C.3    86  MET86       0.0413
     87  CG        10.5130   -5.3320   79.5350 C.3    86  MET86       0.0598
     88  SD        10.0060   -6.2290   81.0230 S.3    86  MET86      -0.1393
     89  CE        11.3410   -7.3820   81.1330 C.3    86  MET86       0.0692
     90  N         10.0310   -5.5620   72.6330 N.3    88  ILE88      -0.1231
     91  CA        10.5500   -4.7410   71.5430 C.3    88  ILE88       0.1692
     92  C         12.0700   -4.6730   71.7040 C.2    88  ILE88       0.2591
     93  O         12.7860   -5.0110   70.7550 O.2    88  ILE88      -0.2718
     94  CB         9.9640   -3.2770   71.5610 C.3    88  ILE88       0.0266
     95  CG1        8.4440   -3.2080   71.4380 C.3    88  ILE88       0.0019
     96  CG2       10.5440   -2.5410   70.3830 C.3    88  ILE88       0.0020
     97  CD1        7.7590   -4.2350   70.5220 C.3    88  ILE88       0.0001
     98  N         12.6040   -4.3310   72.8820 N.am   89  VAL89      -0.1980
     99  CA        14.0440   -4.2590   73.0970 C.3    89  VAL89       0.1595
    100  C         14.7140   -5.5960   72.8000 C.2    89  VAL89       0.2287
    101  O         15.7120   -5.6130   72.0690 O.2    89  VAL89      -0.2864
    102  CB        14.3220   -3.8190   74.5580 C.3    89  VAL89       0.0276
    103  CG1       15.7950   -3.9350   74.9450 C.3    89  VAL89       0.0022
    104  CG2       13.9330   -2.3560   74.6730 C.3    89  VAL89       0.0022
    105  N         14.8870   -5.9980   68.8580 N.3    92  TYR92      -0.1241
    106  CA        15.9300   -5.2370   68.1900 C.3    92  TYR92       0.1605
    107  C         17.3160   -5.7290   68.5740 C.2    92  TYR92       0.2264
    108  O         18.1920   -5.7310   67.7090 O.2    92  TYR92      -0.2867
    109  CB        15.7660   -3.7480   68.5050 C.3    92  TYR92       0.0534
    110  CG        14.6100   -3.1900   67.6840 C.ar   92  TYR92      -0.0201
    111  CD1       14.7370   -3.0040   66.3190 C.ar   92  TYR92      -0.0009
    112  CD2       13.4080   -2.9200   68.3000 C.ar   92  TYR92      -0.0009
    113  CE1       13.6600   -2.5610   65.5780 C.ar   92  TYR92       0.0417
    114  CE2       12.3350   -2.4750   67.5630 C.ar   92  TYR92       0.0417
    115  CZ        12.4650   -2.3040   66.2110 C.ar   92  TYR92       0.1957
    116  OH        11.3540   -1.9140   65.4980 O.3    92  TYR92      -0.2866
    117  N         15.7560    2.1970   64.3130 N.3   108  ARG108     -0.1231
    118  CA        14.3810    1.7590   64.5210 C.3   108  ARG108      0.1694
    119  C         13.9840    1.5600   65.9980 C.2   108  ARG108      0.2592
    120  O         12.8670    1.1030   66.2380 O.2   108  ARG108     -0.2718
    121  CB        14.1390    0.4320   63.7300 C.3   108  ARG108      0.0321
    122  CG        14.7350    0.2560   62.3130 C.3   108  ARG108      0.0489
    123  CD        13.8080    0.3950   61.0960 C.3   108  ARG108      0.2205
    124  NE        13.0960   -0.8260   60.7140 N.pl3 108  ARG108     -0.0865
    125  CZ        13.0130   -1.2520   59.4400 C.cat 108  ARG108      0.5346
    126  NH1       13.5880   -0.5860   58.4340 N.pl3 108  ARG108      0.1354
    127  NH2       12.2920   -2.3410   59.1460 N.pl3 108  ARG108      0.1354
    128  N         14.7850    1.8300   67.0440 N.am  109  CYS109     -0.1970
    129  CA        14.3050    1.6490   68.4190 C.3   109  CYS109      0.1712
    130  C         14.7760    2.6740   69.4400 C.2   109  CYS109      0.2296
    131  O         13.9690    3.4030   70.0140 O.2   109  CYS109     -0.2864
    132  CB        14.6920    0.2500   68.9330 C.3   109  CYS109      0.0983
    133  SG        14.2570   -0.1960   70.6380 S.3   109  CYS109     -0.0798
    134  N         13.8400    7.6270   72.7380 N.3   113  LEU113     -0.1245
    135  CA        13.2290    6.8480   73.7910 C.3   113  LEU113      0.1561
    136  C         13.3270    7.5560   75.1330 C.2   113  LEU113      0.2260
    137  O         12.4410    7.3750   75.9700 O.2   113  LEU113     -0.2867
    138  CB        13.8810    5.4560   73.8170 C.3   113  LEU113      0.0270
    139  CG        12.9920    4.3090   74.3180 C.3   113  LEU113      0.0019
    140  CD1       11.6090    4.3920   73.6890 C.3   113  LEU113      0.0001
    141  CD2       13.6370    2.9820   73.9680 C.3   113  LEU113      0.0001
    142  N         10.2250    9.8330   75.0540 N.3   116  THR116     -0.1203
    143  CA         9.1390    8.8570   75.0050 C.3   116  THR116      0.1994
    144  C          8.8950    8.4630   76.4720 C.2   116  THR116      0.2617
    145  O          7.7600    8.4550   76.9360 O.2   116  THR116     -0.2717
    146  CB         9.5820    7.6300   74.1380 C.3   116  THR116      0.1784
    147  OG1        9.7520    8.1180   72.8120 O.3   116  THR116     -0.2211
    148  CG2        8.5880    6.4750   74.1260 C.3   116  THR116      0.0376
    149  N          9.9330    8.2590   77.2850 N.am  117  TYR117     -0.1975
    150  CA         9.7070    7.9360   78.6800 C.3   117  TYR117      0.1639
    151  C          9.6210    9.1670   79.5770 C.2   117  TYR117      0.2290
    152  O          8.8250    9.1940   80.5220 O.2   117  TYR117     -0.2864
    153  CB        10.8180    6.9970   79.1570 C.3   117  TYR117      0.0560
    154  CG        10.7760    5.6030   78.5200 C.ar  117  TYR117     -0.0198
    155  CD1        9.5740    4.9930   78.1920 C.ar  117  TYR117     -0.0009
    156  CD2       11.9590    4.9370   78.2710 C.ar  117  TYR117     -0.0009
    157  CE1        9.5520    3.7340   77.6230 C.ar  117  TYR117      0.0417
    158  CE2       11.9420    3.6770   77.7010 C.ar  117  TYR117      0.0417
    159  CZ        10.7410    3.0790   77.3790 C.ar  117  TYR117      0.1957
    160  OH        10.7300    1.8160   76.8100 O.3   117  TYR117     -0.2866
    161  N          6.2370   10.8540   79.2350 N.3   120  LEU120     -0.1245
    162  CA         5.2740    9.9580   79.8440 C.3   120  LEU120      0.1561
    163  C          5.3890    9.8550   81.3530 C.2   120  LEU120      0.2260
    164  O          4.4340    9.4330   81.9990 O.2   120  LEU120     -0.2867
    165  CB         5.3940    8.5430   79.3160 C.3   120  LEU120      0.0270
    166  CG         4.9510    8.1790   77.9190 C.3   120  LEU120      0.0019
    167  CD1        4.8380    6.6780   77.9370 C.3   120  LEU120      0.0001
    168  CD2        3.6300    8.8100   77.5050 C.3   120  LEU120      0.0001
    169  N          7.6280    7.8760   82.7430 N.3   122  THR122     -0.1204
    170  CA         8.1350    6.5210   82.9200 C.3   122  THR122      0.1979
    171  C          9.5830    6.5180   83.4250 C.2   122  THR122      0.2459
    172  O         10.4550    7.1620   82.8210 O.2   122  THR122     -0.2732
    173  CB         8.0560    5.7460   81.5770 C.3   122  THR122      0.1783
    174  OG1        6.6940    5.7450   81.1570 O.3   122  THR122     -0.2211
    175  CG2        8.5710    4.3130   81.7010 C.3   122  THR122      0.0376
    176  N          9.9050    5.8010   84.5170 N.am  123  PRO123     -0.2728
    177  CA        11.2390    5.7610   85.0880 C.3   123  PRO123      0.1401
    178  C         12.2120    5.0540   84.1480 C.2   123  PRO123      0.2269
    179  O         12.1790    3.8290   83.9870 O.2   123  PRO123     -0.2865
    180  CB        11.0600    5.0530   86.4240 C.3   123  PRO123      0.0296
    181  CG         9.5700    5.0330   86.6840 C.3   123  PRO123      0.0237
    182  CD         9.0070    4.9290   85.2760 C.3   123  PRO123      0.0939
    183  N         14.2030    2.1990   85.7930 N.3   126  SER126     -0.1202
    184  CA        13.5350    0.9160   85.9480 C.3   126  SER126      0.2020
    185  C         13.5880    0.1990   84.6110 C.2   126  SER126      0.2618
    186  O         13.8710   -1.0030   84.5620 O.2   126  SER126     -0.2717
    187  CB        12.1030    1.1410   86.3610 C.3   126  SER126      0.2103
    188  OG        12.0860    2.1840   87.3250 O.3   126  SER126     -0.2182
    189  N         13.4230    0.9500   83.5120 N.am  127  VAL127     -0.1979
    190  CA        13.4910    0.3670   82.1770 C.3   127  VAL127      0.1595
    191  C         14.9050   -0.1800   81.9920 C.2   127  VAL127      0.2287
    192  O         15.1060   -1.2730   81.4550 O.2   127  VAL127     -0.2864
    193  CB        13.2070    1.4130   81.0670 C.3   127  VAL127      0.0276
    194  CG1       13.1150    0.6770   79.7370 C.3   127  VAL127      0.0022
    195  CG2       11.9100    2.1670   81.3170 C.3   127  VAL127      0.0022
    196  N         15.2700   -3.5630   83.7200 N.3   130  ALA130     -0.1245
    197  CA        14.6420   -4.6020   82.9150 C.3   130  ALA130      0.1562
    198  C         15.5960   -5.1480   81.8590 C.2   130  ALA130      0.2260
    199  O         15.7520   -6.3650   81.7150 O.2   130  ALA130     -0.2867
    200  CB        13.4240   -4.0670   82.1850 C.3   130  ALA130      0.0290
@<TRIPOS>BOND
     1   126   125    1
     2   127   125    1
     3   125   124    2
     4   124   123    1
     5   123   122    1
     6   122   121    1
     7   121   118    1
     8   117   118    1
     9   118   119    1
    10   116   115    1
    11   113   115   ar
    12   113   111   ar
    13   119   120    2
    14   119   128   am
    15   115   114   ar
    16   111   110   ar
    17   128   129    1
    18   114   112   ar
    19   110   112   ar
    20   110   109    1
    21   108   107    2
    22   106   109    1
    23   106   107    1
    24   106   105    1
    25   129   132    1
    26   129   130    1
    27   132   133    1
    28   130   131    2
    29    96    94    1
    30    97    95    1
    31    93    92    2
    32    95    94    1
    33    91    94    1
    34    91    92    1
    35    91    90    1
    36    92    98   am
    37   101   100    2
    38   134   135    1
    39   100    99    1
    40   147   146    1
    41    98    99    1
    42    69    68    1
    43    69    70    1
    44    99   102    1
    45    68    67    1
    46    72    71    1
    47   140   139    1
    48    70    71    2
    49   135   138    1
    50   135   136    1
    51   138   139    1
    52   141   139    1
    53    71    73    1
    54    66    65    2
    55   148   146    1
    56   146   143    1
    57   102   104    1
    58   102   103    1
    59    67    64    1
    60    65    64    1
    61    65    74   am
    62    77    76    2
    63    81    79   ar
    64   143   142    1
    65   143   144    1
    66   136   137    2
    67    64    63    1
    68    75    74    1
    69    75    76    1
    70    75    78    1
    71    85    84    2
    72    76    82   am
    73    39    38    1
    74    84    83    1
    75    79    78    1
    76    79    80   ar
    77   144   145    2
    78   144   149   am
    79    82    83    1
    80   160   159    1
    81    40    38    1
    82    38    37    2
    83    83    86    1
    84    55    54    2
    85   149   150    1
    86   159   157   ar
    87   159   158   ar
    88    53    56    1
    89    53    54    1
    90    53    52    1
    91   168   166    1
    92   157   155   ar
    93   158   156   ar
    94   166   167    1
    95   166   165    1
    96    54    57   am
    97    37    36    1
    98   155   154   ar
    99    86    87    1
   100    36    35    1
   101   156   154   ar
   102    35    34    1
   103   154   153    1
   104   150   153    1
   105   150   151    1
   106    60    59    2
   107    33    32    2
   108   161   162    1
   109    57    58    1
   110   165   162    1
   111    59    58    1
   112    87    88    1
   113   151   152    2
   114    34    31    1
   115   194   193    1
   116    58    61    1
   117   162   163    1
   118    31    32    1
   119    31    30    1
   120    32    41   am
   121    88    89    1
   122   193   195    1
   123   193   190    1
   124    44    43    2
   125   174   173    1
   126    41    42    1
   127    61    62    1
   128   163   164    2
   129   192   191    2
   130    42    43    1
   131    42    45    1
   132   173   175    1
   133   173   170    1
   134   199   198    2
   135   198   197    1
   136   191   190    1
   137   190   189    1
   138   200   197    1
   139    46    45    1
   140    46    47    1
   141   169   170    1
   142   172   171    2
   143   197   196    1
   144   170   171    1
   145    24    22   am
   146    47    48    1
   147   171   176   am
   148   189   185   am
   149    48    49    2
   150   179   178    2
   151    23    22    2
   152   178   177    1
   153    22    21    1
   154    20    19    2
   155   176   177    1
   156   176   182    1
   157   186   185    2
   158   185   184    1
   159   177   180    1
   160    49    51    1
   161    49    50    1
   162   182   181    1
   163     8     6    1
   164    19    25   am
   165    19    18    1
   166    26    29    1
   167    26    25    1
   168    26    27    1
   169    21    18    1
   170   183   184    1
   171   184   187    1
   172    28    27    2
   173    18    17    1
   174   187   188    1
   175   180   181    1
   176     6     5    1
   177     6     7    1
   178     5     2    1
   179    15    14    1
   180     1     2    1
   181     2     3    1
   182    16    14    1
   183    12    11    2
   184    14    13    1
   185    13    10    1
   186     3     4    2
   187    11    10    1
   188    10     9    1
