@<TRIPOS>MOLECULE
tmp/1f9aD00.pdb
 193 189 0 0 0
SMALL
GASTEIGER

@<TRIPOS>ATOM
      1  N         43.0150   -8.4070    6.0550 N.3     5  ILE5       -0.1231
      2  CA        43.3580   -9.7580    6.5600 C.3     5  ILE5        0.1692
      3  C         44.5080   -9.5710    7.5510 C.2     5  ILE5        0.2592
      4  O         45.2400   -8.5700    7.5330 O.2     5  ILE5       -0.2718
      5  CB        43.8360  -10.6410    5.3840 C.3     5  ILE5        0.0266
      6  CG1       44.1370  -12.1000    5.7150 C.3     5  ILE5        0.0019
      7  CG2       45.0750  -10.0560    4.7330 C.3     5  ILE5        0.0020
      8  CD1       44.6420  -12.8050    4.4150 C.3     5  ILE5        0.0001
      9  N         44.6880  -10.5370    8.4140 N.am    6  ILE6       -0.1966
     10  CA        45.7460  -10.4990    9.4270 C.3     6  ILE6        0.1727
     11  C         46.4190  -11.8570    9.5230 C.2     6  ILE6        0.2617
     12  O         45.7340  -12.8860    9.5590 O.2     6  ILE6       -0.2715
     13  CB        45.2850  -10.0090   10.8010 C.3     6  ILE6        0.0290
     14  CG1       46.4320  -10.1090   11.8300 C.3     6  ILE6        0.0022
     15  CG2       44.0880  -10.7480   11.3530 C.3     6  ILE6        0.0023
     16  CD1       46.4390   -9.0180   12.8580 C.3     6  ILE6        0.0001
     17  N         47.7420  -11.8060    9.5750 N.am    7  GLY7       -0.1940
     18  CA        48.4690  -13.0580    9.8620 C.3     7  GLY7        0.2014
     19  C         49.8180  -12.6510   10.4940 C.2     7  GLY7        0.2639
     20  O         50.2500  -11.4880   10.3670 O.2     7  GLY7       -0.2714
     21  N         50.6380  -13.6930   10.6530 N.am    8  ARG8       -0.1963
     22  CA        51.9800  -13.5870   11.1550 C.3     8  ARG8        0.1729
     23  C         52.9290  -13.5390    9.9700 C.2     8  ARG8        0.2616
     24  O         53.9730  -12.8720   10.0580 O.2     8  ARG8       -0.2715
     25  CB        52.3790  -14.6430   12.1940 C.3     8  ARG8        0.0348
     26  CG        51.5090  -14.7000   13.4560 C.3     8  ARG8        0.0492
     27  CD        52.2050  -15.4430   14.6230 C.3     8  ARG8        0.2205
     28  NE        53.1040  -16.4760   14.1150 N.pl3   8  ARG8       -0.0865
     29  CZ        52.8020  -17.6890   13.6220 C.cat   8  ARG8        0.5346
     30  NH1       51.5350  -18.0440   13.6890 N.pl3   8  ARG8        0.1354
     31  NH2       53.7520  -18.4500   13.0950 N.pl3   8  ARG8        0.1354
     32  N         52.5800  -14.1750    8.8480 N.am    9  PHE9       -0.1960
     33  CA        53.4730  -14.2490    7.7080 C.3     9  PHE9        0.1771
     34  C         54.9230  -14.6220    8.0190 C.2     9  PHE9        0.2619
     35  O         55.8440  -13.8550    7.7510 O.2     9  PHE9       -0.2715
     36  CB        53.4020  -12.9620    6.8880 C.3     9  PHE9        0.0574
     37  CG        51.9670  -12.5950    6.6200 C.ar    9  PHE9       -0.0200
     38  CD1       51.3840  -11.4960    7.2300 C.ar    9  PHE9       -0.0042
     39  CD2       51.1900  -13.3730    5.7740 C.ar    9  PHE9       -0.0042
     40  CE1       50.0550  -11.1790    7.0000 C.ar    9  PHE9       -0.0003
     41  CE2       49.8620  -13.0610    5.5400 C.ar    9  PHE9       -0.0003
     42  CZ        49.2940  -11.9630    6.1550 C.ar    9  PHE9       -0.0000
     43  N         55.1480  -15.8220    8.5610 N.am   10  GLN10      -0.1977
     44  CA        56.5160  -16.2850    8.7890 C.3    10  GLN10       0.1601
     45  C         56.7850  -17.6230    8.0960 C.2    10  GLN10       0.2287
     46  O         56.8550  -18.6380    8.7780 O.2    10  GLN10      -0.2864
     47  CB        56.8720  -16.4180   10.2530 C.3    10  GLN10       0.0394
     48  CG        57.7880  -15.3210   10.7470 C.3    10  GLN10       0.0908
     49  CD        57.0800  -14.4920   11.7700 C.2    10  GLN10       0.2608
     50  OE1       55.8850  -14.6850   11.9890 O.2    10  GLN10      -0.2717
     51  NE2       57.6070  -13.5360   12.5090 N.am   10  GLN10      -0.0878
     52  N         53.7950  -17.1690    2.0020 N.3    13  HIS13      -0.1297
     53  CA        54.0340  -18.3330    1.1260 C.3    13  HIS13       0.1306
     54  C         53.0290  -18.3140   -0.0170 C.3    13  HIS13       0.2013
     55  O         52.2530  -17.3260    0.0020 O.3    13  HIS13      -0.2188
     56  CB        53.8550  -19.5740    1.9700 C.3    13  HIS13       0.0691
     57  CG        52.5530  -19.6690    2.6960 C.ar   13  HIS13       0.0814
     58  ND1       51.3080  -19.4680    2.1440 N.ar   13  HIS13      -0.2268
     59  CD2       52.3350  -19.8280    4.0180 C.ar   13  HIS13       0.1154
     60  CE1       50.3920  -19.6790    3.0770 C.ar   13  HIS13       0.1986
     61  NE2       50.9840  -19.9160    4.2360 N.ar   13  HIS13      -0.2212
     62  N         50.1780  -19.8990   -0.4170 N.3    15  GLY15      -0.1210
     63  CA        48.8240  -19.9740    0.1610 C.3    15  GLY15       0.1956
     64  C         48.2980  -18.5420    0.3720 C.2    15  GLY15       0.2611
     65  O         47.1470  -18.1700    0.0930 O.2    15  GLY15      -0.2717
     66  N         49.2080  -17.7280    0.9270 N.am   16  HIS16      -0.1975
     67  CA        48.9240  -16.3030    1.1230 C.3    16  HIS16       0.1656
     68  C         48.6460  -15.6010   -0.1920 C.2    16  HIS16       0.2291
     69  O         47.7110  -14.7890   -0.2300 O.2    16  HIS16      -0.2864
     70  CB        49.9160  -15.4160    1.9060 C.3    16  HIS16       0.0771
     71  CG        50.0670  -15.9720    3.3050 C.ar   16  HIS16       0.0820
     72  ND1       51.2100  -16.4770    3.8400 N.ar   16  HIS16      -0.2267
     73  CD2       49.1180  -16.0770    4.2470 C.ar   16  HIS16       0.1154
     74  CE1       50.9920  -16.8640    5.0900 C.ar   16  HIS16       0.1986
     75  NE2       49.7230  -16.6230    5.3770 N.ar   16  HIS16      -0.2212
     76  N         45.1100  -16.4840   -1.6170 N.3    19  VAL19      -0.1245
     77  CA        44.0360  -15.9080   -0.8450 C.3    19  VAL19       0.1561
     78  C         43.9480  -14.3870   -1.0050 C.2    19  VAL19       0.2260
     79  O         42.8200  -13.9050   -1.1540 O.2    19  VAL19      -0.2867
     80  CB        44.0430  -16.2880    0.6310 C.3    19  VAL19       0.0252
     81  CG1       45.1560  -15.6030    1.4060 C.3    19  VAL19       0.0019
     82  CG2       42.7010  -15.9130    1.2550 C.3    19  VAL19       0.0019
     83  N         58.6470  -20.3040   16.1920 N.3    44  GLU44      -0.1245
     84  CA        57.3610  -19.8980   15.6020 C.3    44  GLU44       0.1567
     85  C         57.3510  -18.6070   14.8030 C.2    44  GLU44       0.2260
     86  O         56.5600  -18.4290   13.8520 O.2    44  GLU44      -0.2867
     87  CB        56.2860  -19.8570   16.6740 C.3    44  GLU44       0.0388
     88  CG        55.8620  -21.2300   17.1820 C.3    44  GLU44       0.1160
     89  CD        54.4640  -21.6050   16.7150 C.2    44  GLU44       0.3649
     90  OE1       53.5310  -20.7700   16.7880 O.co2  44  GLU44      -0.2457
     91  OE2       54.2640  -22.7420   16.2400 O.co2  44  GLU44      -0.2457
     92  N         38.4110  -10.6870    6.2140 N.3    96  TYR96      -0.1227
     93  CA        38.5380  -12.1070    5.8370 C.3    96  TYR96       0.1736
     94  C         39.3090  -12.8340    6.9330 C.2    96  TYR96       0.2596
     95  O         40.4900  -12.5070    7.0390 O.2    96  TYR96      -0.2718
     96  CB        39.4010  -12.2220    4.5550 C.3    96  TYR96       0.0548
     97  CG        38.6110  -11.6030    3.3950 C.ar   96  TYR96      -0.0200
     98  CD1       38.6760  -10.2350    3.2590 C.ar   96  TYR96      -0.0009
     99  CD2       37.6410  -12.3050    2.6800 C.ar   96  TYR96      -0.0009
    100  CE1       37.8770   -9.5780    2.3480 C.ar   96  TYR96       0.0417
    101  CE2       36.8450  -11.6330    1.7640 C.ar   96  TYR96       0.0417
    102  CZ        36.9550  -10.2710    1.6050 C.ar   96  TYR96       0.1957
    103  OH        36.2040   -9.5600    0.7030 O.3    96  TYR96      -0.2866
    104  N         38.7270  -13.7990    7.5980 N.am   97  SER97      -0.1938
    105  CA        39.5360  -14.5800    8.5500 C.3    97  SER97       0.2055
    106  C         38.7040  -15.7970    8.9220 C.2    97  SER97       0.2643
    107  O         37.4510  -15.7440    9.0590 O.2    97  SER97      -0.2714
    108  CB        39.8600  -13.5860    9.7020 C.3    97  SER97       0.2130
    109  OG        40.1980  -14.2620   10.9050 O.3    97  SER97      -0.2179
    110  N         39.4090  -16.9250    9.1200 N.am   98  GLY98      -0.1954
    111  CA        38.6850  -18.0840    9.7130 C.3    98  GLY98       0.1869
    112  C         39.0960  -18.2410   11.1850 C.2    98  GLY98       0.2309
    113  O         38.6690  -19.2350   11.7800 O.2    98  GLY98      -0.2863
    114  N         38.0530  -16.8930    4.2180 N.3   116  PRO116     -0.2102
    115  CA        38.7760  -17.0020    2.9560 C.3   116  PRO116      0.1504
    116  C         38.8710  -18.4940    2.6110 C.2   116  PRO116      0.2576
    117  O         38.4800  -19.3590    3.3970 O.2   116  PRO116     -0.2718
    118  CB        40.1060  -16.3840    3.3110 C.3   116  PRO116      0.0282
    119  CG        40.2930  -16.6920    4.7560 C.3   116  PRO116      0.0208
    120  CD        38.9330  -16.5380    5.3670 C.3   116  PRO116      0.0893
    121  N         39.1970  -18.7690    1.3620 N.am  117  GLU117     -0.1966
    122  CA        39.4320  -20.1090    0.8470 C.3   117  GLU117      0.1733
    123  C         40.8420  -20.5740    1.2340 C.2   117  GLU117      0.2616
    124  O         41.7420  -19.7240    1.1720 O.2   117  GLU117     -0.2715
    125  CB        39.3940  -19.9870   -0.6940 C.3   117  GLU117      0.0429
    126  CG        37.9920  -19.9350   -1.2790 C.3   117  GLU117      0.1163
    127  CD        38.0430  -19.8060   -2.8010 C.2   117  GLU117      0.3649
    128  OE1       38.8300  -20.5520   -3.4220 O.co2 117  GLU117     -0.2457
    129  OE2       37.2770  -18.9670   -3.3210 O.co2 117  GLU117     -0.2457
    130  N         40.9830  -21.8500    1.5610 N.am  118  MET118     -0.1963
    131  CA        42.2980  -22.4490    1.7130 C.3   118  MET118      0.1736
    132  C         42.8080  -23.0320    0.3980 C.2   118  MET118      0.2616
    133  O         42.1060  -23.6720   -0.3990 O.2   118  MET118     -0.2715
    134  CB        42.2800  -23.5270    2.8000 C.3   118  MET118      0.0427
    135  CG        41.9020  -23.0100    4.1850 C.3   118  MET118      0.0599
    136  SD        42.9530  -21.6320    4.7160 S.3   118  MET118     -0.1393
    137  CE        43.3600  -22.1980    6.3720 C.3   118  MET118      0.0692
    138  N         44.0950  -22.7720    0.1290 N.am  119  PHE119     -0.1974
    139  CA        44.7370  -23.3140   -1.0660 C.3   119  PHE119      0.1639
    140  C         45.8450  -24.2450   -0.5920 C.2   119  PHE119      0.2290
    141  O         46.7610  -23.7930    0.1110 O.2   119  PHE119     -0.2864
    142  CB        45.2160  -22.2350   -2.0100 C.3   119  PHE119      0.0560
    143  CG        44.1450  -21.3150   -2.5190 C.ar  119  PHE119     -0.0200
    144  CD1       43.9700  -20.0690   -1.9230 C.ar  119  PHE119     -0.0042
    145  CD2       43.2990  -21.6870   -3.5600 C.ar  119  PHE119     -0.0042
    146  CE1       43.0150  -19.1920   -2.4040 C.ar  119  PHE119     -0.0003
    147  CE2       42.3260  -20.8180   -4.0150 C.ar  119  PHE119     -0.0003
    148  CZ        42.1800  -19.5700   -3.4370 C.ar  119  PHE119     -0.0000
    149  N         46.6330  -26.4810    1.6010 N.3   121  ARG121     -0.1245
    150  CA        47.0370  -26.2000    2.9580 C.3   121  ARG121      0.1563
    151  C         47.9640  -27.2350    3.5720 C.2   121  ARG121      0.2260
    152  O         48.3590  -27.0960    4.7320 O.2   121  ARG121     -0.2867
    153  CB        45.9110  -25.9840    3.9840 C.3   121  ARG121      0.0307
    154  CG        45.7700  -24.5190    4.4310 C.3   121  ARG121      0.0489
    155  CD        45.8040  -24.3510    5.9560 C.3   121  ARG121      0.2205
    156  NE        47.1360  -23.9760    6.4500 N.pl3 121  ARG121     -0.0865
    157  CZ        47.3990  -23.2650    7.5600 C.cat 121  ARG121      0.5346
    158  NH1       46.4190  -22.8110    8.3310 N.pl3 121  ARG121      0.1354
    159  NH2       48.6630  -23.0160    7.9000 N.pl3 121  ARG121      0.1354
    160  N         51.2860  -25.2470    1.8020 N.3   124  TYR124     -0.1241
    161  CA        51.1800  -23.8060    1.9200 C.3   124  TYR124      0.1605
    162  C         50.7710  -23.4060    3.3310 C.2   124  TYR124      0.2264
    163  O         49.6090  -23.2480    3.7310 O.2   124  TYR124     -0.2867
    164  CB        50.1110  -23.5030    0.8680 C.3   124  TYR124      0.0534
    165  CG        50.5780  -23.4980   -0.5630 C.ar  124  TYR124     -0.0201
    166  CD1       49.6950  -23.0390   -1.5460 C.ar  124  TYR124     -0.0009
    167  CD2       51.8260  -23.9630   -0.9720 C.ar  124  TYR124     -0.0009
    168  CE1       50.0540  -23.0450   -2.8790 C.ar  124  TYR124      0.0417
    169  CE2       52.2040  -23.9360   -2.3020 C.ar  124  TYR124      0.0417
    170  CZ        51.2950  -23.5090   -3.2530 C.ar  124  TYR124      0.1957
    171  OH        51.6580  -23.4270   -4.5760 O.3   124  TYR124     -0.2866
    172  N         52.7890  -21.8150    7.1370 N.3   126  GLY126     -0.1210
    173  CA        54.0750  -21.3780    7.7070 C.3   126  GLY126      0.1956
    174  C         54.7500  -22.4260    8.5780 C.2   126  GLY126      0.2612
    175  O         55.9570  -22.6690    8.5130 O.2   126  GLY126     -0.2717
    176  N         54.0100  -23.1190    9.3960 N.am  127  THR127     -0.1952
    177  CA        54.4950  -24.2260   10.2060 C.3   127  THR127      0.1897
    178  C         55.1800  -25.3880    9.4680 C.2   127  THR127      0.2313
    179  O         56.1320  -25.9530   10.0060 O.2   127  THR127     -0.2863
    180  CB        53.3230  -24.8750   10.9480 C.3   127  THR127      0.1794
    181  OG1       52.8380  -23.8400   11.7970 O.3   127  THR127     -0.2208
    182  CG2       53.8030  -26.0010   11.8600 C.3   127  THR127      0.0378
    183  N         58.5300  -23.9430    7.9370 N.3   130  ARG130     -0.1245
    184  CA        59.6540  -23.6250    8.8410 C.3   130  ARG130      0.1563
    185  C         60.2310  -24.9710    9.2900 C.2   130  ARG130      0.2260
    186  O         61.4430  -25.1720    9.3200 O.2   130  ARG130     -0.2867
    187  CB        59.1640  -22.8730   10.0760 C.3   130  ARG130      0.0307
    188  CG        58.8940  -21.3900    9.7390 C.3   130  ARG130      0.0489
    189  CD        58.4790  -20.6580   11.0050 C.3   130  ARG130      0.2205
    190  NE        57.4660  -21.2590   11.8830 N.pl3 130  ARG130     -0.0865
    191  CZ        56.1480  -20.9800   11.7360 C.cat 130  ARG130      0.5346
    192  NH1       55.3050  -21.4760   12.6050 N.pl3 130  ARG130      0.1354
    193  NH2       55.7500  -20.2120   10.7120 N.pl3 130  ARG130      0.1354
@<TRIPOS>BOND
     1   171   170    1
     2   147   145   ar
     3   147   148   ar
     4   145   143   ar
     5   148   146   ar
     6   128   127   ar
     7   129   127   ar
     8   170   168   ar
     9   170   169   ar
    10   168   166   ar
    11   127   126    1
    12   143   142    1
    13   143   144   ar
    14   146   144   ar
    15   169   167   ar
    16   142   139    1
    17    76    77    1
    18   166   165   ar
    19   126   125    1
    20    79    78    2
    21   139   140    1
    22   139   138    1
    23    78    77    1
    24   167   165   ar
    25    77    80    1
    26   125   122    1
    27   140   141    2
    28   165   164    1
    29    62    63    1
    30   133   132    2
    31    69    68    2
    32    68    67    1
    33    54    55    1
    34    54    53    1
    35    65    64    2
    36   138   132   am
    37    63    64    1
    38    64    66   am
    39   132   131    1
    40    80    82    1
    41    80    81    1
    42   103   102    1
    43   122   123    1
    44   122   121    1
    45   164   161    1
    46    66    67    1
    47    67    70    1
    48    53    56    1
    49    53    52    1
    50   124   123    2
    51   123   130   am
    52   121   116   am
    53   130   131    1
    54   149   150    1
    55   102   101   ar
    56   102   100   ar
    57   131   134    1
    58   101    99   ar
    59   160   161    1
    60    70    71    1
    61   161   162    1
    62    56    57    1
    63    58    57   ar
    64    58    60   ar
    65   100    98   ar
    66   116   115    1
    67   116   117    2
    68    99    97   ar
    69    57    59   ar
    70   134   135    1
    71   115   118    1
    72   115   114    1
    73   150   151    1
    74   150   153    1
    75    60    61   ar
    76    98    97   ar
    77    71    72   ar
    78    71    73   ar
    79   118   119    1
    80   162   163    2
    81    97    96    1
    82   151   152    2
    83    72    74   ar
    84   153   154    1
    85    59    61   ar
    86   135   136    1
    87   114   120    1
    88    73    75   ar
    89     8     6    1
    90   154   155    1
    91    96    93    1
    92   136   137    1
    93     7     5    1
    94   119   120    1
    95    74    75   ar
    96     5     6    1
    97     5     2    1
    98    41    39   ar
    99    41    42   ar
   100    39    37   ar
   101    93    92    1
   102    93    94    1
   103   155   156    1
   104     1     2    1
   105    42    40   ar
   106   156   157    2
   107     2     3    1
   108    37    36    1
   109    37    38   ar
   110    36    33    1
   111    94    95    2
   112    94   104   am
   113    40    38   ar
   114   172   173    1
   115     4     3    2
   116     3     9   am
   117   157   159    1
   118   157   158    1
   119   104   105    1
   120   173   174    1
   121    33    34    1
   122    33    32    1
   123    35    34    2
   124   183   184    1
   125    34    43   am
   126    45    46    2
   127    45    44    1
   128     9    10    1
   129   175   174    2
   130   105   106    1
   131   105   108    1
   132    43    44    1
   133   174   176   am
   134    44    47    1
   135   184   185    1
   136   184   187    1
   137    32    23   am
   138   106   107    2
   139   106   110   am
   140   110   111    1
   141   185   186    2
   142   176   177    1
   143    10    11    1
   144    10    13    1
   145   178   179    2
   146   178   177    1
   147    11    12    2
   148    11    17   am
   149    17    18    1
   150   108   109    1
   151   111   112    1
   152   188   187    1
   153   188   189    1
   154    18    19    1
   155    23    24    2
   156    23    22    1
   157   177   180    1
   158    47    48    1
   159    20    19    2
   160    19    21   am
   161    21    22    1
   162   193   191    1
   163    48    49    1
   164    13    15    1
   165    13    14    1
   166   180   181    1
   167   180   182    1
   168   189   190    1
   169    22    25    1
   170   112   113    2
   171   191   190    2
   172   191   192    1
   173    49    50    2
   174    49    51   am
   175    14    16    1
   176    25    26    1
   177    31    29    1
   178    26    27    1
   179    29    30    1
   180    29    28    2
   181    86    85    2
   182    28    27    1
   183    85    84    1
   184    84    83    1
   185    84    87    1
   186    91    89   ar
   187    87    88    1
   188    89    90   ar
   189    89    88    1
