@<TRIPOS>MOLECULE
tmp/1f9bA00.pdb
 89 87 0 0 0
SMALL
GASTEIGER

@<TRIPOS>ATOM
      1  N         10.1850   -3.9700   20.6390 N.3     8  TRP8       -0.1227
      2  CA        10.5190   -3.0080   19.6140 C.3     8  TRP8        0.1737
      3  C          9.3420   -2.0630   19.4170 C.2     8  TRP8        0.2596
      4  O          8.1930   -2.4870   19.2690 O.2     8  TRP8       -0.2718
      5  CB        10.8320   -3.7070   18.3020 C.3     8  TRP8        0.0564
      6  CG        11.9260   -2.9810   17.5220 C.ar    8  TRP8        0.0003
      7  CD1       11.7580   -2.0080   16.6210 C.ar    8  TRP8        0.0946
      8  CD2       13.3160   -3.2310   17.6480 C.ar    8  TRP8        0.0152
      9  NE1       13.0590   -1.6340   16.1620 N.ar    8  TRP8       -0.2442
     10  CE2       13.9580   -2.3640   16.7750 C.ar    8  TRP8        0.0810
     11  CE3       14.0810   -4.1150   18.4180 C.ar    8  TRP8        0.0012
     12  CZ2       15.3470   -2.3260   16.6170 C.ar    8  TRP8        0.0191
     13  CZ3       15.4820   -4.0690   18.2520 C.ar    8  TRP8        0.0001
     14  CH2       16.0830   -3.2160   17.3930 C.ar    8  TRP8        0.0015
     15  N          9.6300   -0.7840   19.4370 N.am    9  CYS9       -0.1956
     16  CA         8.5920    0.2200   19.2090 C.3     9  CYS9        0.1843
     17  C          8.4910    0.4710   17.7060 C.2     9  CYS9        0.2626
     18  O          9.5080    0.5800   17.0110 O.2     9  CYS9       -0.2714
     19  CB         8.9410    1.5220   19.9320 C.3     9  CYS9        0.0997
     20  SG         7.5810    2.7870   19.8310 S.3     9  CYS9       -0.0797
     21  N          7.2660    0.5390   17.2180 N.am   10  THR10      -0.1936
     22  CA         7.0140    0.8130   15.7910 C.3    10  THR10       0.2028
     23  C          6.2050    2.1110   15.6690 C.2    10  THR10       0.2642
     24  O          5.4980    2.4650   16.6100 O.2    10  THR10      -0.2714
     25  CB         6.2950   -0.3620   15.1300 C.3    10  THR10       0.1808
     26  OG1        5.0850   -0.6440   15.8070 O.3    10  THR10      -0.2208
     27  CG2        7.1370   -1.6380   15.1320 C.3    10  THR10       0.0379
     28  N          6.2810    2.7910   14.5200 N.am   11  ILE11      -0.1977
     29  CA         5.6090    4.0850   14.3200 C.3    11  ILE11       0.1596
     30  C          4.4320    4.1930   13.3340 C.2    11  ILE11       0.2287
     31  O          3.7500    5.2140   13.2790 O.2    11  ILE11      -0.2864
     32  CB         6.6490    5.2040   13.9660 C.3    11  ILE11       0.0276
     33  CG1        6.8590    5.3180   12.4550 C.3    11  ILE11       0.0022
     34  CG2        7.9890    4.9400   14.6500 C.3    11  ILE11       0.0022
     35  CD1        8.0280    6.2070   12.0730 C.3    11  ILE11       0.0001
     36  N          4.8070   -0.3540    9.4200 N.3    15  GLU15      -0.1245
     37  CA         5.9460   -0.7420   10.2250 C.3    15  GLU15       0.1567
     38  C          5.6360   -1.8890   11.1500 C.2    15  GLU15       0.2260
     39  O          6.4840   -2.7530   11.3570 O.2    15  GLU15      -0.2867
     40  CB         6.4980    0.4290   10.9980 C.3    15  GLU15       0.0388
     41  CG         7.9840    0.3420   11.1310 C.3    15  GLU15       0.1160
     42  CD         8.5750    1.6240   11.6190 C.2    15  GLU15       0.3649
     43  OE1        7.9220    2.2630   12.4420 O.co2  15  GLU15      -0.2457
     44  OE2        9.6900    2.0010   11.1980 O.co2  15  GLU15      -0.2457
     45  N          8.5770    8.5210   15.9510 N.3    42  SER42      -0.1217
     46  CA         9.8190    8.1770   16.5990 C.3    42  SER42       0.1889
     47  C         10.0180    8.8830   17.9510 C.2    42  SER42       0.2288
     48  O         10.5040    8.2810   18.9060 O.2    42  SER42      -0.2866
     49  CB        10.9620    8.4430   15.6320 C.3    42  SER42       0.2089
     50  OG        10.5760    7.9880   14.3240 O.3    42  SER42      -0.2183
     51  N          8.3700    6.9220   20.5350 N.3    45  CYS45      -0.1235
     52  CA         9.0400    5.7050   20.9290 C.3    45  CYS45       0.1677
     53  C         10.1130    6.1230   21.8960 C.2    45  CYS45       0.2270
     54  O         10.3940    5.3900   22.8280 O.2    45  CYS45      -0.2867
     55  CB         9.6180    4.9740   19.7270 C.3    45  CYS45       0.0956
     56  SG         8.3410    4.1690   18.7020 S.3    45  CYS45      -0.0801
     57  N         14.6190    1.1660   19.4040 N.3    57  VAL57      -0.1231
     58  CA        14.2850    1.9370   18.1920 C.3    57  VAL57       0.1692
     59  C         15.5510    2.5520   17.5650 C.2    57  VAL57       0.2592
     60  O         16.4210    3.0940   18.2960 O.2    57  VAL57      -0.2718
     61  CB        13.3390    3.1200   18.4710 C.3    57  VAL57       0.0266
     62  CG1       11.8840    2.6980   18.6820 C.3    57  VAL57       0.0020
     63  CG2       13.7250    3.9360   19.6980 C.3    57  VAL57       0.0020
     64  N         15.5760    2.4050   16.2260 N.am   58  THR58      -0.1953
     65  CA        16.6000    3.0070   15.3520 C.3    58  THR58       0.1897
     66  C         16.2000    4.4530   15.1490 C.2    58  THR58       0.2313
     67  O         15.0360    4.7560   14.8540 O.2    58  THR58      -0.2863
     68  CB        16.7830    2.3350   13.9890 C.3    58  THR58       0.1794
     69  OG1       17.2450    1.0060   14.1520 O.3    58  THR58      -0.2208
     70  CG2       17.8390    3.0620   13.1250 C.3    58  THR58       0.0378
     71  N         11.2540   -0.0660    9.9000 N.3   299  LEU299     -0.1231
     72  CA        12.2030   -0.6000   10.8430 C.3   299  LEU299      0.1693
     73  C         13.5970   -0.1280   10.4130 C.2   299  LEU299      0.2592
     74  O         14.0270    0.9790   10.6260 O.2   299  LEU299     -0.2718
     75  CB        12.1570   -2.1210   10.8770 C.3   299  LEU299      0.0284
     76  CG        10.8750   -2.6940   11.5000 C.3   299  LEU299      0.0019
     77  CD1       11.1040   -4.0510   12.1740 C.3   299  LEU299      0.0001
     78  CD2       10.2430   -1.7990   12.5670 C.3   299  LEU299      0.0001
     79  N         14.4190   -0.8840    9.7290 N.am  300  PHE300     -0.1976
     80  CA        15.7900   -0.3160    9.5750 C.3   300  PHE300      0.1639
     81  C         15.9940    0.4520    8.2810 C.2   300  PHE300      0.2290
     82  O         15.0460    0.7120    7.5350 O.2   300  PHE300     -0.2864
     83  CB        16.8050   -1.4450    9.7160 C.3   300  PHE300      0.0560
     84  CG        16.5950   -2.1860   11.0360 C.ar  300  PHE300     -0.0200
     85  CD1       17.2670   -1.7680   12.1920 C.ar  300  PHE300     -0.0042
     86  CD2       15.7130   -3.2690   11.0940 C.ar  300  PHE300     -0.0042
     87  CE1       17.0370   -2.4230   13.4090 C.ar  300  PHE300     -0.0003
     88  CE2       15.4770   -3.9170   12.3110 C.ar  300  PHE300     -0.0003
     89  CZ        16.1370   -3.4930   13.4700 C.ar  300  PHE300     -0.0000
@<TRIPOS>BOND
     1    82    81    2
     2    81    80    1
     3    36    37    1
     4    80    83    1
     5    80    79    1
     6    83    84    1
     7    79    73   am
     8    71    72    1
     9    37    40    1
    10    37    38    1
    11    73    74    2
    12    73    72    1
    13    72    75    1
    14    75    76    1
    15    40    41    1
    16    84    86   ar
    17    84    85   ar
    18    86    88   ar
    19    41    42    1
    20    38    39    2
    21    44    42   ar
    22    76    77    1
    23    76    78    1
    24    42    43   ar
    25    35    33    1
    26    85    87   ar
    27    88    89   ar
    28    33    32    1
    29    70    68    1
    30    31    30    2
    31    30    29    1
    32    87    89   ar
    33    32    29    1
    34    32    34    1
    35    68    69    1
    36    68    65    1
    37    29    28    1
    38    50    49    1
    39    28    23   am
    40    67    66    2
    41    25    27    1
    42    25    22    1
    43    25    26    1
    44    66    65    1
    45    65    64    1
    46    49    46    1
    47    23    22    1
    48    23    24    2
    49    22    21    1
    50    45    46    1
    51     9     7   ar
    52     9    10   ar
    53    64    59   am
    54    46    47    1
    55    12    10   ar
    56    12    14   ar
    57     7     6   ar
    58    10     8   ar
    59    18    17    2
    60    21    17   am
    61    14    13   ar
    62     6     8   ar
    63     6     5    1
    64    59    58    1
    65    59    60    2
    66     8    11   ar
    67    17    16    1
    68    47    48    2
    69    58    61    1
    70    58    57    1
    71    13    11   ar
    72     5     2    1
    73    61    62    1
    74    61    63    1
    75    56    55    1
    76    56    20    1
    77    16    15    1
    78    16    19    1
    79     4     3    2
    80     3    15   am
    81     3     2    1
    82     2     1    1
    83    55    52    1
    84    20    19    1
    85    51    52    1
    86    52    53    1
    87    53    54    2
