@<TRIPOS>MOLECULE
tmp/1f9bA01.pdb
 135 127 0 0 0
SMALL
GASTEIGER

@<TRIPOS>ATOM
      1  N         40.6770   19.7850   35.5700 N.3   350  VAL350     -0.1245
      2  CA        40.5540   18.4820   36.2060 C.3   350  VAL350      0.1561
      3  C         40.4790   18.5690   37.7500 C.2   350  VAL350      0.2260
      4  O         41.5030   18.6080   38.4560 O.2   350  VAL350     -0.2867
      5  CB        41.7420   17.5660   35.7880 C.3   350  VAL350      0.0252
      6  CG1       41.5750   16.1630   36.3540 C.3   350  VAL350      0.0019
      7  CG2       41.8810   17.5250   34.2550 C.3   350  VAL350      0.0019
      8  N         41.7730   22.8780   40.2690 N.3   354  GLU354     -0.1245
      9  CA        42.0970   23.4400   38.9600 C.3   354  GLU354      0.1567
     10  C         40.9700   24.3310   38.4720 C.2   354  GLU354      0.2260
     11  O         41.2040   25.3440   37.8460 O.2   354  GLU354     -0.2867
     12  CB        42.3830   22.3550   37.9210 C.3   354  GLU354      0.0388
     13  CG        43.7080   21.5790   38.1150 C.3   354  GLU354      0.1160
     14  CD        44.1610   20.8280   36.8570 C.2   354  GLU354      0.3649
     15  OE1       43.3150   20.3520   36.0940 O.co2 354  GLU354     -0.2457
     16  OE2       45.3730   20.6960   36.6300 O.co2 354  GLU354     -0.2457
     17  N         41.0870   13.0650   34.0210 N.3   377  THR377     -0.1218
     18  CA        41.6240   13.5210   32.7530 C.3   377  THR377      0.1862
     19  C         40.9210   12.9400   31.5330 C.2   377  THR377      0.2287
     20  O         40.8800   13.5800   30.4830 O.2   377  THR377     -0.2866
     21  CB        43.0950   13.2370   32.6740 C.3   377  THR377      0.1770
     22  OG1       43.7140   13.5580   33.9390 O.3   377  THR377     -0.2211
     23  CG2       43.6950   14.0400   31.5930 C.3   377  THR377      0.0375
     24  N         46.0420   20.7970   29.2070 N.3   393  ASN393     -0.1240
     25  CA        47.4470   20.4410   29.1460 C.3   393  ASN393      0.1653
     26  C         47.5210   19.0130   29.6300 C.2   393  ASN393      0.2266
     27  O         47.0140   18.6970   30.7090 O.2   393  ASN393     -0.2867
     28  CB        48.2320   21.3620   30.0610 C.3   393  ASN393      0.1155
     29  CG        49.6920   21.3170   29.8030 C.2   393  ASN393      0.2627
     30  OD1       50.1200   21.1670   28.6780 O.2   393  ASN393     -0.2716
     31  ND2       50.4790   21.4360   30.8460 N.am  393  ASN393     -0.0877
     32  N         49.7360   15.0920   29.9490 N.3   395  ASP395     -0.1239
     33  CA        50.9810   14.3710   30.1710 C.3   395  ASP395      0.1674
     34  C         51.2870   13.4870   28.9540 C.2   395  ASP395      0.2266
     35  O         50.3640   12.9940   28.3060 O.2   395  ASP395     -0.2867
     36  CB        50.8380   13.5150   31.4230 C.3   395  ASP395      0.1410
     37  CG        52.0220   12.6610   31.6510 C.2   395  ASP395      0.3668
     38  OD1       53.0300   13.1790   32.1490 O.co2 395  ASP395     -0.2456
     39  OD2       51.9700   11.4860   31.2680 O.co2 395  ASP395     -0.2456
     40  N         50.0080    7.7970   33.1720 N.3   463  ARG463     -0.1245
     41  CA        51.0090    8.8460   33.1040 C.3   463  ARG463      0.1563
     42  C         52.4160    8.3020   32.9240 C.2   463  ARG463      0.2260
     43  O         52.7310    7.2020   33.3270 O.2   463  ARG463     -0.2867
     44  CB        50.8930    9.7460   34.3480 C.3   463  ARG463      0.0307
     45  CG        49.4800   10.3850   34.5180 C.3   463  ARG463      0.0489
     46  CD        49.3460   11.2560   35.7710 C.3   463  ARG463      0.2205
     47  NE        50.4100   12.2570   35.8240 N.pl3 463  ARG463     -0.0865
     48  CZ        50.2880   13.4520   36.3760 C.cat 463  ARG463      0.5346
     49  NH1       49.1510   13.8250   36.9320 N.pl3 463  ARG463      0.1354
     50  NH2       51.3080   14.2750   36.3820 N.pl3 463  ARG463      0.1354
     51  N         43.2420   12.9230   40.8400 N.3   518  ASN518     -0.1225
     52  CA        43.2640   14.3870   40.8260 C.3   518  ASN518      0.1785
     53  C         43.8210   14.9720   42.1360 C.2   518  ASN518      0.2597
     54  O         44.2540   14.2090   43.0030 O.2   518  ASN518     -0.2718
     55  CB        41.9010   14.9930   40.3840 C.3   518  ASN518      0.1169
     56  CG        40.8050   14.9200   41.4360 C.2   518  ASN518      0.2627
     57  OD1       41.0140   15.2820   42.5850 O.2   518  ASN518     -0.2716
     58  ND2       39.5900   14.5670   41.0100 N.am  518  ASN518     -0.0877
     59  N         43.8940   16.3060   42.2490 N.am  519  SER519     -0.1952
     60  CA        44.4430   16.9900   43.4380 C.3   519  SER519      0.1924
     61  C         43.7650   16.6710   44.7790 C.2   519  SER519      0.2314
     62  O         44.3870   16.7830   45.8480 O.2   519  SER519     -0.2863
     63  CB        44.5340   18.5050   43.2010 C.3   519  SER519      0.2116
     64  OG        43.3470   19.0440   42.6310 O.3   519  SER519     -0.2180
     65  N         48.3340   12.4300   44.8810 N.3   524  TYR524     -0.1227
     66  CA        48.2920   12.4610   43.4240 C.3   524  TYR524      0.1736
     67  C         49.3910   13.4010   42.8760 C.2   524  TYR524      0.2596
     68  O         49.8450   14.3060   43.5810 O.2   524  TYR524     -0.2718
     69  CB        46.8980   12.9200   42.9590 C.3   524  TYR524      0.0548
     70  CG        46.7710   13.2210   41.4750 C.ar  524  TYR524     -0.0200
     71  CD1       46.5610   12.1940   40.5290 C.ar  524  TYR524     -0.0009
     72  CD2       46.8540   14.5230   41.0130 C.ar  524  TYR524     -0.0009
     73  CE1       46.4390   12.4780   39.1470 C.ar  524  TYR524      0.0417
     74  CE2       46.7320   14.8130   39.6510 C.ar  524  TYR524      0.0417
     75  CZ        46.5260   13.7940   38.7200 C.ar  524  TYR524      0.1957
     76  OH        46.4140   14.1170   37.3820 O.3   524  TYR524     -0.2866
     77  N         49.8600   13.1160   41.6620 N.am  525  GLY525     -0.1942
     78  CA        50.8550   13.9270   40.9750 C.3   525  GLY525      0.2014
     79  C         52.3050   13.7150   41.4340 C.2   525  GLY525      0.2638
     80  O         52.5860   12.9130   42.3220 O.2   525  GLY525     -0.2714
     81  N         53.2310   14.4610   40.7920 N.am  526  TYR526     -0.1973
     82  CA        54.6670   14.3780   41.1620 C.3   526  TYR526      0.1639
     83  C         54.8890   14.8390   42.5530 C.2   526  TYR526      0.2290
     84  O         55.7830   14.3470   43.2430 O.2   526  TYR526     -0.2864
     85  CB        55.5910   15.3300   40.4440 C.3   526  TYR526      0.0560
     86  CG        55.5220   15.2170   38.9730 C.ar  526  TYR526     -0.0198
     87  CD1       56.3760   14.3450   38.3090 C.ar  526  TYR526     -0.0009
     88  CD2       54.5960   16.0000   38.3290 C.ar  526  TYR526     -0.0009
     89  CE1       56.3150   14.2830   36.9270 C.ar  526  TYR526      0.0417
     90  CE2       54.5380   15.9480   36.9450 C.ar  526  TYR526      0.0417
     91  CZ        55.4000   15.0940   36.2440 C.ar  526  TYR526      0.1957
     92  OH        55.3440   15.0690   34.8940 O.3   526  TYR526     -0.2866
     93  N         54.7180   17.6580   28.8640 N.3   595  HIS595     -0.1241
     94  CA        53.2810   17.7190   28.6900 C.3   595  HIS595      0.1621
     95  C         53.0560   18.7010   27.5630 C.2   595  HIS595      0.2264
     96  O         53.9620   19.4570   27.1860 O.2   595  HIS595     -0.2867
     97  CB        52.5990   18.2010   29.9620 C.3   595  HIS595      0.0745
     98  CG        52.9470   17.3520   31.1760 C.ar  595  HIS595      0.0817
     99  ND1       52.1310   17.3110   32.2980 N.ar  595  HIS595     -0.2268
    100  CD2       53.9990   16.5350   31.4320 C.ar  595  HIS595      0.1154
    101  CE1       52.6900   16.5040   33.1790 C.ar  595  HIS595      0.1986
    102  NE2       53.8050   16.0330   32.6780 N.ar  595  HIS595     -0.2212
    103  N         51.4020   22.8540   43.7550 N.3   637  LYS637     -0.1231
    104  CA        50.3920   21.8580   43.4430 C.3   637  LYS637      0.1693
    105  C         50.3210   21.4970   41.9600 C.2   637  LYS637      0.2592
    106  O         49.5520   20.6210   41.5770 O.2   637  LYS637     -0.2718
    107  CB        49.0450   22.3230   43.9900 C.3   637  LYS637      0.0285
    108  CG        49.1390   22.8420   45.4410 C.3   637  LYS637      0.0035
    109  CD        47.7820   23.1700   46.0730 C.3   637  LYS637      0.0206
    110  CE        47.6210   24.6630   46.3780 C.3   637  LYS637      0.1093
    111  NZ        47.3130   25.4720   45.1530 N.3   637  LYS637     -0.1314
    112  N         51.1560   22.1440   41.1420 N.am  638  ASN638     -0.1960
    113  CA        51.2460   21.9220   39.6830 C.3   638  ASN638      0.1819
    114  C         49.8930   21.9460   38.9480 C.2   638  ASN638      0.2621
    115  O         49.6620   21.1280   38.0670 O.2   638  ASN638     -0.2715
    116  CB        51.9780   20.6000   39.3830 C.3   638  ASN638      0.1195
    117  CG        53.4770   20.6220   39.7400 C.2   638  ASN638      0.2630
    118  OD1       54.2700   21.3460   39.1500 O.2   638  ASN638     -0.2716
    119  ND2       53.8620   19.7820   40.6710 N.am  638  ASN638     -0.0877
    120  N         49.0150   22.8920   39.3030 N.am  639  LEU639     -0.1977
    121  CA        47.6790   23.0190   38.6990 C.3   639  LEU639      0.1596
    122  C         47.6580   23.6170   37.2880 C.2   639  LEU639      0.2287
    123  O         48.2750   24.6370   37.0210 O.2   639  LEU639     -0.2864
    124  CB        46.7310   23.8370   39.5930 C.3   639  LEU639      0.0297
    125  CG        46.4790   23.5850   41.0920 C.3   639  LEU639      0.0022
    126  CD1       45.6140   24.6590   41.6530 C.3   639  LEU639      0.0001
    127  CD2       45.8380   22.2570   41.3740 C.3   639  LEU639      0.0001
    128  N         52.5460   22.8290   34.8780 N.3   642  ASN642     -0.1240
    129  CA        53.5550   22.6200   35.8920 C.3   642  ASN642      0.1653
    130  C         54.0480   23.9840   36.3420 C.2   642  ASN642      0.2266
    131  O         54.1020   24.9280   35.5580 O.2   642  ASN642     -0.2867
    132  CB        54.7300   21.8490   35.3230 C.3   642  ASN642      0.1155
    133  CG        54.5320   20.3480   35.3610 C.2   642  ASN642      0.2627
    134  OD1       54.3910   19.7410   36.4440 O.2   642  ASN642     -0.2716
    135  ND2       54.6360   19.7170   34.1830 N.am  642  ASN642     -0.0877
@<TRIPOS>BOND
     1    96    95    2
     2    95    94    1
     3    35    34    2
     4    30    29    2
     5    94    93    1
     6    94    97    1
     7    34    33    1
     8    25    24    1
     9    25    26    1
    10    25    28    1
    11    26    27    2
    12    29    28    1
    13    29    31   am
    14    32    33    1
    15    97    98    1
    16    33    36    1
    17    20    19    2
    18    98   100   ar
    19    98    99   ar
    20    39    37   ar
    21    36    37    1
    22   100   102   ar
    23    19    18    1
    24    23    21    1
    25    37    38   ar
    26    99   101   ar
    27    21    18    1
    28    21    22    1
    29   102   101   ar
    30    18    17    1
    31    42    41    1
    32    42    43    2
    33    41    40    1
    34    41    44    1
    35   135   133   am
    36     7     5    1
    37    44    45    1
    38    45    46    1
    39   128   129    1
    40    92    91    1
    41   132   133    1
    42   132   129    1
    43   133   134    2
    44   131   130    2
    45     1     2    1
    46    46    47    1
    47     5     2    1
    48     5     6    1
    49    47    48    2
    50   129   130    1
    51    15    14   ar
    52     2     3    1
    53    91    89   ar
    54    91    90   ar
    55    48    50    1
    56    48    49    1
    57    16    14   ar
    58    14    13    1
    59    89    87   ar
    60    90    88   ar
    61   123   122    2
    62   122   121    1
    63    76    75    1
    64     3     4    2
    65    11    10    2
    66    12    13    1
    67    12     9    1
    68   115   114    2
    69    87    86   ar
    70    88    86   ar
    71    10     9    1
    72   121   120    1
    73   121   124    1
    74    75    73   ar
    75    75    74   ar
    76   114   120   am
    77   114   113    1
    78     9     8    1
    79    86    85    1
    80    73    71   ar
    81   118   117    2
    82   116   113    1
    83   116   117    1
    84   124   125    1
    85    74    72   ar
    86   113   112    1
    87   117   119   am
    88    55    52    1
    89    55    56    1
    90    85    82    1
    91    71    70   ar
    92    81    82    1
    93    81    79   am
    94    52    51    1
    95    52    53    1
    96    78    79    1
    97    78    77    1
    98    58    56   am
    99    72    70   ar
   100   125   127    1
   101   125   126    1
   102   112   105   am
   103    82    83    1
   104    79    80    2
   105    56    57    2
   106    70    69    1
   107   106   105    2
   108    77    67   am
   109   105   104    1
   110    53    59   am
   111    53    54    2
   112    59    60    1
   113    83    84    2
   114    64    63    1
   115    67    66    1
   116    67    68    2
   117    69    66    1
   118    63    60    1
   119    66    65    1
   120    60    61    1
   121   104   103    1
   122   104   107    1
   123   107   108    1
   124    61    62    2
   125   111   110    1
   126   108   109    1
   127   109   110    1
