@<TRIPOS>MOLECULE
tmp/1f9dA01.pdb
 242 238 0 0 0
SMALL
GASTEIGER

@<TRIPOS>ATOM
      1  N         82.6840   93.2480   56.1720 N.3    36  HIS36      -0.1241
      2  CA        82.1500   93.3780   54.8200 C.3    36  HIS36       0.1621
      3  C         82.8570   94.5680   54.1670 C.2    36  HIS36       0.2264
      4  O         83.1930   94.5440   52.9830 O.2    36  HIS36      -0.2867
      5  CB        80.6460   93.6470   54.8590 C.3    36  HIS36       0.0745
      6  CG        80.0530   93.9510   53.5180 C.ar   36  HIS36       0.0817
      7  ND1       79.8220   92.9810   52.5650 N.ar   36  HIS36      -0.2268
      8  CD2       79.6580   95.1240   52.9640 C.ar   36  HIS36       0.1154
      9  CE1       79.3070   93.5420   51.4840 C.ar   36  HIS36       0.1986
     10  NE2       79.1970   94.8420   51.7010 N.ar   36  HIS36      -0.2212
     11  N         73.3990   97.3240   51.5950 N.3    44  GLU44      -0.1231
     12  CA        73.2810   96.8670   50.2060 C.3    44  GLU44       0.1699
     13  C         72.8750   95.3910   50.0650 C.2    44  GLU44       0.2592
     14  O         72.1750   95.0240   49.1210 O.2    44  GLU44      -0.2718
     15  CB        74.5750   97.1450   49.4310 C.3    44  GLU44       0.0402
     16  CG        75.8480   96.5710   50.0280 C.3    44  GLU44       0.1161
     17  CD        77.0940   97.0980   49.3260 C.2    44  GLU44       0.3649
     18  OE1       77.0450   98.2330   48.8020 O.co2  44  GLU44      -0.2457
     19  OE2       78.1250   96.3900   49.3110 O.co2  44  GLU44      -0.2457
     20  N         73.3430   94.5580   50.9890 N.am   45  ALA45      -0.1966
     21  CA        73.0150   93.1270   51.0730 C.3    45  ALA45       0.1713
     22  C         73.0320   93.0460   52.5980 C.2    45  ALA45       0.2458
     23  O         71.9970   92.8010   53.2120 O.2    45  ALA45      -0.2730
     24  CB        74.0960   92.2610   50.4360 C.3    45  ALA45       0.0333
     25  N         74.2140   93.2050   53.2320 N.am   46  PRO46      -0.2727
     26  CA        74.1200   93.1640   54.6930 C.3    46  PRO46       0.1402
     27  C         73.6690   94.6090   54.9700 C.2    46  PRO46       0.2269
     28  O         73.7000   95.4270   54.0520 O.2    46  PRO46      -0.2865
     29  CB        75.5630   92.9010   55.1290 C.3    46  PRO46       0.0296
     30  CG        76.3800   93.4780   54.0170 C.3    46  PRO46       0.0237
     31  CD        75.6160   93.0310   52.8020 C.3    46  PRO46       0.0939
     32  N         80.3090   88.1210   56.3070 N.3    53  THR53      -0.1203
     33  CA        79.4750   87.1960   55.5570 C.3    53  THR53       0.1994
     34  C         80.2960   85.9740   55.1760 C.2    53  THR53       0.2619
     35  O         81.5270   86.0170   55.2060 O.2    53  THR53      -0.2717
     36  CB        78.9770   87.8360   54.2630 C.3    53  THR53       0.1784
     37  OG1       80.1060   88.2730   53.4950 O.3    53  THR53      -0.2211
     38  CG2       78.0700   89.0190   54.5610 C.3    53  THR53       0.0376
     39  N         79.6260   84.8810   54.8190 N.am   54  SER54      -0.1937
     40  CA        80.3610   83.6940   54.4120 C.3    54  SER54       0.2055
     41  C         81.0440   84.0590   53.0930 C.2    54  SER54       0.2642
     42  O         82.0640   83.4870   52.7260 O.2    54  SER54      -0.2714
     43  CB        79.4270   82.4860   54.2500 C.3    54  SER54       0.2130
     44  OG        78.3020   82.7720   53.4400 O.3    54  SER54      -0.2179
     45  N         80.4810   85.0390   52.3970 N.am   55  GLN55      -0.1976
     46  CA        81.0570   85.5120   51.1430 C.3    55  GLN55       0.1601
     47  C         82.4370   86.1150   51.4080 C.2    55  GLN55       0.2287
     48  O         83.3810   85.8880   50.6530 O.2    55  GLN55      -0.2864
     49  CB        80.1570   86.5820   50.5210 C.3    55  GLN55       0.0394
     50  CG        80.7830   87.3290   49.3550 C.3    55  GLN55       0.0908
     51  CD        79.9210   88.4920   48.8880 C.2    55  GLN55       0.2608
     52  OE1       79.8970   89.5560   49.5130 O.2    55  GLN55      -0.2717
     53  NE2       79.1900   88.2830   47.7940 N.am   55  GLN55      -0.0878
     54  N         75.3600   82.3720   56.6850 N.3   154  TRP154     -0.1241
     55  CA        75.7740   83.4790   55.8250 C.3   154  TRP154      0.1605
     56  C         76.1380   84.8390   56.3880 C.2   154  TRP154      0.2264
     57  O         76.8380   85.5970   55.7200 O.2   154  TRP154     -0.2867
     58  CB        74.7360   83.7030   54.7250 C.3   154  TRP154      0.0550
     59  CG        73.6300   84.6190   55.1470 C.ar  154  TRP154      0.0003
     60  CD1       72.5900   84.3200   55.9760 C.ar  154  TRP154      0.0946
     61  CD2       73.4620   85.9840   54.7620 C.ar  154  TRP154      0.0152
     62  NE1       71.7770   85.4170   56.1350 N.ar  154  TRP154     -0.2442
     63  CE2       72.2910   86.4550   55.4070 C.ar  154  TRP154      0.0810
     64  CE3       74.1920   86.8600   53.9490 C.ar  154  TRP154      0.0012
     65  CZ2       71.8250   87.7590   55.2460 C.ar  154  TRP154      0.0191
     66  CZ3       73.7300   88.1600   53.7890 C.ar  154  TRP154      0.0001
     67  CH2       72.5560   88.5990   54.4430 C.ar  154  TRP154      0.0015
     68  N         74.6480   80.1680   52.3470 N.3   228  ALA228     -0.1245
     69  CA        74.7120   80.9140   51.0960 C.3   228  ALA228      0.1562
     70  C         75.5930   79.9870   50.2640 C.2   228  ALA228      0.2260
     71  O         76.8170   80.0800   50.3080 O.2   228  ALA228     -0.2867
     72  CB        75.3950   82.2690   51.3040 C.3   228  ALA228      0.0290
     73  N         76.7550   79.7430   47.2020 N.3   230  ASP230     -0.1225
     74  CA        77.8500   80.2080   46.3610 C.3   230  ASP230      0.1805
     75  C         79.1260   80.5060   47.1590 C.2   230  ASP230      0.2597
     76  O         80.2330   80.4110   46.6250 O.2   230  ASP230     -0.2718
     77  CB        77.4060   81.4220   45.5340 C.3   230  ASP230      0.1424
     78  CG        77.1650   82.6470   46.3760 C.2   230  ASP230      0.3668
     79  OD1       76.5860   82.5140   47.4750 O.co2 230  ASP230     -0.2456
     80  OD2       77.5480   83.7450   45.9250 O.co2 230  ASP230     -0.2456
     81  N         78.9730   80.8400   48.4390 N.am  231  ALA231     -0.1979
     82  CA        80.1200   81.1190   49.3090 C.3   231  ALA231      0.1597
     83  C         80.8490   79.8180   49.6640 C.2   231  ALA231      0.2287
     84  O         82.0770   79.7380   49.5910 O.2   231  ALA231     -0.2864
     85  CB        79.6570   81.8210   50.5870 C.3   231  ALA231      0.0319
     86  N         69.4220   79.0090   45.9750 N.3   298  TRP298     -0.1241
     87  CA        69.6220   80.1890   46.7950 C.3   298  TRP298      0.1605
     88  C         70.0430   79.8760   48.2380 C.2   298  TRP298      0.2264
     89  O         70.6870   80.7010   48.8840 O.2   298  TRP298     -0.2867
     90  CB        68.3500   81.0460   46.7730 C.3   298  TRP298      0.0550
     91  CG        68.5920   82.4900   47.1010 C.ar  298  TRP298      0.0003
     92  CD1       68.3610   83.1090   48.2920 C.ar  298  TRP298      0.0946
     93  CD2       69.1460   83.4830   46.2300 C.ar  298  TRP298      0.0152
     94  NE1       68.7370   84.4290   48.2240 N.ar  298  TRP298     -0.2442
     95  CE2       69.2240   84.6860   46.9710 C.ar  298  TRP298      0.0810
     96  CE3       69.5880   83.4730   44.9020 C.ar  298  TRP298      0.0012
     97  CZ2       69.7230   85.8690   46.4250 C.ar  298  TRP298      0.0191
     98  CZ3       70.0880   84.6520   44.3550 C.ar  298  TRP298      0.0001
     99  CH2       70.1520   85.8350   45.1210 C.ar  298  TRP298      0.0015
    100  N         74.8460   81.8580   41.1120 N.3   323  TYR323     -0.1241
    101  CA        75.3230   81.0220   42.2200 C.3   323  TYR323      0.1605
    102  C         76.0480   79.7480   41.7930 C.2   323  TYR323      0.2264
    103  O         76.7290   79.1180   42.6070 O.2   323  TYR323     -0.2867
    104  CB        74.1450   80.6300   43.1180 C.3   323  TYR323      0.0534
    105  CG        73.8400   81.6120   44.2210 C.ar  323  TYR323     -0.0201
    106  CD1       73.9690   82.9850   44.0120 C.ar  323  TYR323     -0.0009
    107  CD2       73.4220   81.1690   45.4750 C.ar  323  TYR323     -0.0009
    108  CE1       73.6950   83.8960   45.0230 C.ar  323  TYR323      0.0417
    109  CE2       73.1400   82.0750   46.5000 C.ar  323  TYR323      0.0417
    110  CZ        73.2820   83.4360   46.2590 C.ar  323  TYR323      0.1957
    111  OH        73.0140   84.3480   47.2500 O.3   323  TYR323     -0.2866
    112  N         71.8870   93.4030   38.2760 N.3   411  TRP411     -0.1241
    113  CA        73.2530   93.8110   38.6260 C.3   411  TRP411      0.1605
    114  C         74.2380   93.0010   37.7810 C.2   411  TRP411      0.2264
    115  O         74.1980   91.7680   37.7760 O.2   411  TRP411     -0.2867
    116  CB        73.5310   93.5630   40.1210 C.3   411  TRP411      0.0550
    117  CG        74.9580   93.8820   40.5800 C.ar  411  TRP411      0.0003
    118  CD1       75.6200   95.0700   40.4400 C.ar  411  TRP411      0.0946
    119  CD2       75.8410   93.0200   41.3160 C.ar  411  TRP411      0.0152
    120  NE1       76.8550   95.0070   41.0460 N.ar  411  TRP411     -0.2442
    121  CE2       77.0170   93.7640   41.5910 C.ar  411  TRP411      0.0810
    122  CE3       75.7510   91.7000   41.7690 C.ar  411  TRP411      0.0012
    123  CZ2       78.0910   93.2260   42.3020 C.ar  411  TRP411      0.0191
    124  CZ3       76.8200   91.1640   42.4760 C.ar  411  TRP411      0.0001
    125  CH2       77.9780   91.9300   42.7350 C.ar  411  TRP411      0.0015
    126  N         76.6890   89.5940   38.8960 N.3   414  MET414     -0.1245
    127  CA        76.4190   88.1640   38.8010 C.3   414  MET414      0.1570
    128  C         77.0770   87.5500   37.5620 C.2   414  MET414      0.2261
    129  O         77.5690   86.4270   37.6130 O.2   414  MET414     -0.2867
    130  CB        74.9060   87.9150   38.7970 C.3   414  MET414      0.0387
    131  CG        74.2340   88.2290   40.1410 C.3   414  MET414      0.0595
    132  SD        74.8660   87.1820   41.4890 S.3   414  MET414     -0.1393
    133  CE        73.6110   87.4010   42.7300 C.3   414  MET414      0.0692
    134  N         81.0320   87.0510   38.3260 N.3   417  TRP417     -0.1241
    135  CA        81.2680   86.1280   39.4270 C.3   417  TRP417      0.1605
    136  C         81.0500   84.6890   38.9650 C.2   417  TRP417      0.2264
    137  O         81.8570   83.8030   39.2390 O.2   417  TRP417     -0.2867
    138  CB        80.3190   86.4120   40.5910 C.3   417  TRP417      0.0550
    139  CG        80.8130   87.4430   41.5160 C.ar  417  TRP417      0.0003
    140  CD1       82.0620   87.9880   41.5380 C.ar  417  TRP417      0.0946
    141  CD2       80.0960   88.0230   42.5990 C.ar  417  TRP417      0.0152
    142  NE1       82.1720   88.8720   42.5770 N.ar  417  TRP417     -0.2442
    143  CE2       80.9810   88.9130   43.2490 C.ar  417  TRP417      0.0810
    144  CE3       78.7950   87.8740   43.0910 C.ar  417  TRP417      0.0012
    145  CZ2       80.6040   89.6570   44.3670 C.ar  417  TRP417      0.0191
    146  CZ3       78.4190   88.6160   44.2050 C.ar  417  TRP417      0.0001
    147  CH2       79.3280   89.4970   44.8320 C.ar  417  TRP417      0.0015
    148  N         76.7300   98.2620   34.4320 N.3   461  SER461     -0.1202
    149  CA        76.4290   98.3210   35.8550 C.3   461  SER461      0.2020
    150  C         75.0550   97.7160   36.0960 C.2   461  SER461      0.2619
    151  O         74.9100   96.7270   36.8100 O.2   461  SER461     -0.2717
    152  CB        76.4440   99.7710   36.3360 C.3   461  SER461      0.2103
    153  OG        76.2010   99.8410   37.7290 O.3   461  SER461     -0.2182
    154  N         74.0470   98.3290   35.4880 N.am  462  THR462     -0.1952
    155  CA        72.6760   97.8630   35.6080 C.3   462  THR462      0.1897
    156  C         72.2350   97.3150   34.2540 C.2   462  THR462      0.2313
    157  O         72.5240   97.9080   33.2180 O.2   462  THR462     -0.2863
    158  CB        71.7530   99.0200   36.0300 C.3   462  THR462      0.1794
    159  OG1       72.0820   99.4200   37.3650 O.3   462  THR462     -0.2208
    160  CG2       70.2980   98.5990   35.9720 C.3   462  THR462      0.0378
    161  N         72.7480  101.1600   32.3360 N.3   490  ASN490     -0.1240
    162  CA        73.7600  102.1790   32.5980 C.3   490  ASN490      0.1653
    163  C         75.1230  101.5540   32.8810 C.2   490  ASN490      0.2266
    164  O         75.2280  100.3570   33.1630 O.2   490  ASN490     -0.2867
    165  CB        73.3450  103.0950   33.7560 C.3   490  ASN490      0.1155
    166  CG        72.9670  102.3320   35.0030 C.2   490  ASN490      0.2627
    167  OD1       73.7260  101.4950   35.4920 O.2   490  ASN490     -0.2716
    168  ND2       71.7870  102.6260   35.5340 N.am  490  ASN490     -0.0877
    169  N         82.4820   99.9430   38.9570 N.3   494  ASP494     -0.1239
    170  CA        82.5050   99.0990   40.1420 C.3   494  ASP494      0.1674
    171  C         83.8230   98.3290   40.0560 C.2   494  ASP494      0.2266
    172  O         83.9980   97.4760   39.1810 O.2   494  ASP494     -0.2867
    173  CB        81.3150   98.1350   40.1310 C.3   494  ASP494      0.1410
    174  CG        81.1770   97.3630   41.4300 C.2   494  ASP494      0.3668
    175  OD1       82.1710   96.7340   41.8540 O.co2 494  ASP494     -0.2456
    176  OD2       80.0730   97.3790   42.0250 O.co2 494  ASP494     -0.2456
    177  N         81.3420  106.7440   44.6780 N.3   542  GLU542     -0.1231
    178  CA        80.1400  106.1960   44.0810 C.3   542  GLU542      0.1699
    179  C         78.8940  106.7700   44.7250 C.2   542  GLU542      0.2592
    180  O         78.9050  107.1560   45.8940 O.2   542  GLU542     -0.2718
    181  CB        80.1310  104.6690   44.1970 C.3   542  GLU542      0.0402
    182  CG        79.7620  104.1180   45.5580 C.3   542  GLU542      0.1161
    183  CD        79.8100  102.5930   45.5900 C.2   542  GLU542      0.3649
    184  OE1       80.9240  102.0290   45.6270 O.co2 542  GLU542     -0.2457
    185  OE2       78.7310  101.9600   45.5650 O.co2 542  GLU542     -0.2457
    186  N         77.8210  106.8330   43.9480 N.am  543  GLN543     -0.1966
    187  CA        76.5670  107.3510   44.4510 C.3   543  GLN543      0.1733
    188  C         75.7850  106.2670   45.1720 C.2   543  GLN543      0.2616
    189  O         75.7840  105.1070   44.7630 O.2   543  GLN543     -0.2715
    190  CB        75.7490  107.9390   43.3010 C.3   543  GLN543      0.0408
    191  CG        76.3280  109.2560   42.8040 C.3   543  GLN543      0.0908
    192  CD        75.3870  110.0190   41.9040 C.2   543  GLN543      0.2608
    193  OE1       75.4530  111.2450   41.8260 O.2   543  GLN543     -0.2717
    194  NE2       74.5110  109.3010   41.2070 N.am  543  GLN543     -0.0878
    195  N         75.1430  106.6510   46.2690 N.am  544  ARG544     -0.1963
    196  CA        74.3400  105.7240   47.0600 C.3   544  ARG544      0.1729
    197  C         72.8800  106.1350   46.8630 C.2   544  ARG544      0.2617
    198  O         72.2390  106.6910   47.7590 O.2   544  ARG544     -0.2715
    199  CB        74.7480  105.8200   48.5310 C.3   544  ARG544      0.0348
    200  CG        76.2610  105.7840   48.7220 C.3   544  ARG544      0.0492
    201  CD        76.8440  104.4830   48.1900 C.3   544  ARG544      0.2205
    202  NE        76.6710  103.3940   49.1400 N.pl3 544  ARG544     -0.0865
    203  CZ        76.4880  102.1210   48.8060 C.cat 544  ARG544      0.5346
    204  NH1       76.4460  101.7600   47.5290 N.pl3 544  ARG544      0.1354
    205  NH2       76.3510  101.2060   49.7560 N.pl3 544  ARG544      0.1354
    206  N         72.3760  105.8560   45.6640 N.am  545  GLY545     -0.1940
    207  CA        71.0170  106.2140   45.3040 C.3   545  GLY545      0.2014
    208  C         69.8890  105.7320   46.1950 C.2   545  GLY545      0.2638
    209  O         68.8310  106.3570   46.2250 O.2   545  GLY545     -0.2714
    210  N         70.0960  104.6390   46.9230 N.am  546  ASP546     -0.1971
    211  CA        69.0460  104.1090   47.7880 C.3   546  ASP546      0.1709
    212  C         69.0910  104.5850   49.2290 C.2   546  ASP546      0.2293
    213  O         68.1980  104.2640   50.0110 O.2   546  ASP546     -0.2864
    214  CB        69.0750  102.5760   47.7960 C.3   546  ASP546      0.1436
    215  CG        68.6380  101.9760   46.4760 C.2   546  ASP546      0.3671
    216  OD1       67.6690  102.4950   45.8830 O.co2 546  ASP546     -0.2456
    217  OD2       69.2550  100.9780   46.0390 O.co2 546  ASP546     -0.2456
    218  N         85.1560   97.6390   50.1710 N.3   609  ARG609     -0.1245
    219  CA        84.4840   96.3790   50.4560 C.3   609  ARG609      0.1563
    220  C         85.5420   95.2820   50.4380 C.2   609  ARG609      0.2260
    221  O         86.3270   95.1940   49.4920 O.2   609  ARG609     -0.2867
    222  CB        83.4290   96.0930   49.3870 C.3   609  ARG609      0.0307
    223  CG        82.3440   97.1470   49.2790 C.3   609  ARG609      0.0489
    224  CD        81.4050   96.8270   48.1340 C.3   609  ARG609      0.2205
    225  NE        80.2610   97.7330   48.0750 N.pl3 609  ARG609     -0.0865
    226  CZ        80.2420   98.8950   47.4280 C.cat 609  ARG609      0.5346
    227  NH1       81.3140   99.3210   46.7660 N.pl3 609  ARG609      0.1354
    228  NH2       79.1370   99.6300   47.4350 N.pl3 609  ARG609      0.1354
    229  N         85.4780   92.0040   49.8520 N.3   611  TRP611     -0.1241
    230  CA        85.4800   91.1350   48.6850 C.3   611  TRP611      0.1605
    231  C         86.0230   91.8190   47.4360 C.2   611  TRP611      0.2264
    232  O         86.6660   91.1760   46.6080 O.2   611  TRP611     -0.2867
    233  CB        84.0740   90.5640   48.4070 C.3   611  TRP611      0.0550
    234  CG        83.0650   91.5130   47.8010 C.ar  611  TRP611      0.0003
    235  CD1       82.0850   92.2050   48.4630 C.ar  611  TRP611      0.0946
    236  CD2       82.8890   91.7990   46.4100 C.ar  611  TRP611      0.0152
    237  NE1       81.3050   92.8960   47.5670 N.ar  611  TRP611     -0.2442
    238  CE2       81.7740   92.6650   46.3010 C.ar  611  TRP611      0.0810
    239  CE3       83.5610   91.4060   45.2470 C.ar  611  TRP611      0.0012
    240  CZ2       81.3150   93.1410   45.0700 C.ar  611  TRP611      0.0191
    241  CZ3       83.1050   91.8800   44.0180 C.ar  611  TRP611      0.0001
    242  CH2       81.9890   92.7390   43.9430 C.ar  611  TRP611      0.0015
@<TRIPOS>BOND
     1   161   162    1
     2   162   163    1
     3   162   165    1
     4   163   164    2
     5   157   156    2
     6   165   166    1
     7   156   155    1
     8   148   149    1
     9   166   167    2
    10   166   168   am
    11   154   155    1
    12   154   150   am
    13   155   158    1
    14   149   150    1
    15   149   152    1
    16   160   158    1
    17   158   159    1
    18   150   151    2
    19   152   153    1
    20   128   129    2
    21   128   127    1
    22   115   114    2
    23   114   113    1
    24   112   113    1
    25   134   135    1
    26   113   116    1
    27   130   127    1
    28   130   131    1
    29   127   126    1
    30   169   170    1
    31   136   137    2
    32   136   135    1
    33   172   171    2
    34   135   138    1
    35   171   170    1
    36   116   117    1
    37   173   170    1
    38   173   174    1
    39   131   132    1
    40   118   117   ar
    41   118   120   ar
    42   117   119   ar
    43   138   139    1
    44   120   121   ar
    45   100   101    1
    46   194   192   am
    47   119   121   ar
    48   119   122   ar
    49   174   175   ar
    50   174   176   ar
    51   132   133    1
    52   139   140   ar
    53   139   141   ar
    54   140   142   ar
    55   121   123   ar
    56   122   124   ar
    57   102   101    1
    58   102   103    2
    59   193   192    2
    60   192   191    1
    61   101   104    1
    62   123   125   ar
    63   124   125   ar
    64   142   143   ar
    65   141   144   ar
    66   141   143   ar
    67   191   190    1
    68   144   146   ar
    69   104   105    1
    70   143   145   ar
    71   190   187    1
    72   242   241   ar
    73   242   240   ar
    74   186   187    1
    75   186   179   am
    76   106   105   ar
    77   106   108   ar
    78   241   239   ar
    79   178   181    1
    80   178   177    1
    81   178   179    1
    82   181   182    1
    83   146   147   ar
    84   105   107   ar
    85    98    96   ar
    86    98    99   ar
    87   145   147   ar
    88   187   188    1
    89   179   180    2
    90   189   188    2
    91    96    93   ar
    92   108   110   ar
    93   240   238   ar
    94    99    97   ar
    95   188   195   am
    96   239   236   ar
    97   207   206    1
    98   207   208    1
    99   107   109   ar
   100    77    74    1
   101    77    78    1
   102   182   183    1
   103   185   183   ar
   104   183   184   ar
   105   206   197   am
   106   216   215   ar
   107    80    78   ar
   108    86    87    1
   109   217   215   ar
   110   208   209    2
   111   208   210   am
   112    93    95   ar
   113    93    91   ar
   114   110   109   ar
   115   110   111    1
   116   195   196    1
   117   238   236   ar
   118   238   237   ar
   119    74    75    1
   120    74    73    1
   121    78    79   ar
   122   236   234   ar
   123    97    95   ar
   124   215   214    1
   125   232   231    2
   126    76    75    2
   127   227   226    1
   128    90    87    1
   129    90    91    1
   130    87    88    1
   131   197   196    1
   132   197   198    2
   133   210   211    1
   134    95    94   ar
   135   196   199    1
   136    91    92   ar
   137    75    81   am
   138   226   228    1
   139   226   225    2
   140   231   230    1
   141   204   203    1
   142   237   235   ar
   143   211   214    1
   144   211   212    1
   145    53    51   am
   146   234   233    1
   147   234   235   ar
   148   225   224    1
   149   224   223    1
   150   201   200    1
   151   201   202    1
   152    94    92   ar
   153    88    89    2
   154   233   230    1
   155    81    82    1
   156   199   200    1
   157   230   229    1
   158    18    17   ar
   159   203   202    2
   160   203   205    1
   161    51    50    1
   162    51    52    2
   163    14    13    2
   164   212   213    2
   165   223   222    1
   166    82    83    1
   167    82    85    1
   168    19    17   ar
   169    17    16    1
   170    50    49    1
   171   222   219    1
   172    15    16    1
   173    15    12    1
   174   221   220    2
   175    84    83    2
   176    13    12    1
   177    13    20   am
   178   218   219    1
   179    12    11    1
   180    70    71    2
   181    70    69    1
   182    24    21    1
   183   220   219    1
   184    49    46    1
   185    48    47    2
   186    20    21    1
   187    21    22    1
   188    69    72    1
   189    69    68    1
   190    46    47    1
   191    46    45    1
   192     9    10   ar
   193     9     7   ar
   194    10     8   ar
   195    45    41   am
   196     7     6   ar
   197    22    23    2
   198    22    25   am
   199    42    41    2
   200    31    25    1
   201    31    30    1
   202     8     6   ar
   203     4     3    2
   204    41    40    1
   205    25    26    1
   206    44    43    1
   207    37    36    1
   208     6     5    1
   209    66    64   ar
   210    66    67   ar
   211    64    61   ar
   212    30    29    1
   213    28    27    2
   214     3     2    1
   215    43    40    1
   216    36    38    1
   217    36    33    1
   218    40    39    1
   219    67    65   ar
   220    26    27    1
   221    26    29    1
   222    58    59    1
   223    58    55    1
   224    61    59   ar
   225    61    63   ar
   226    39    34   am
   227     2     5    1
   228     2     1    1
   229    59    60   ar
   230    34    35    2
   231    34    33    1
   232    65    63   ar
   233    63    62   ar
   234    33    32    1
   235    57    56    2
   236    55    56    1
   237    55    54    1
   238    60    62   ar
