@<TRIPOS>MOLECULE
tmp/1f9eP00.pdb
 82 79 0 0 0
SMALL
GASTEIGER

@<TRIPOS>ATOM
      1  N         -0.2060  108.7510   82.8250 N.3    37  ARG37      -0.1245
      2  CA        -0.6510  108.8000   81.4270 C.3    37  ARG37       0.1563
      3  C         -1.4460  107.6010   80.8720 C.2    37  ARG37       0.2260
      4  O         -1.0890  106.4470   81.1270 O.2    37  ARG37      -0.2867
      5  CB         0.5750  108.9570   80.5180 C.3    37  ARG37       0.0307
      6  CG         1.4720  110.1310   80.8240 C.3    37  ARG37       0.0489
      7  CD         0.8050  111.4430   80.4400 C.3    37  ARG37       0.2205
      8  NE         0.1700  111.3990   79.1190 N.pl3  37  ARG37      -0.0865
      9  CZ         0.7050  110.8630   78.0210 C.cat  37  ARG37       0.5346
     10  NH1        1.9120  110.2970   78.0580 N.pl3  37  ARG37       0.1354
     11  NH2        0.0300  110.9040   76.8750 N.pl3  37  ARG37       0.1354
     12  N         -1.9980  105.1300   78.0460 N.3    39  ARG39      -0.1231
     13  CA        -1.0820  104.7140   77.0020 C.3    39  ARG39       0.1694
     14  C         -1.6380  104.8470   75.5900 C.2    39  ARG39       0.2592
     15  O         -1.8280  103.8580   74.8750 O.2    39  ARG39      -0.2718
     16  CB        -0.6220  103.2760   77.2950 C.3    39  ARG39       0.0321
     17  CG        -0.0230  103.1270   78.7160 C.3    39  ARG39       0.0489
     18  CD         0.6120  101.7590   78.9650 C.3    39  ARG39       0.2205
     19  NE         1.6420  101.4660   77.9720 N.pl3  39  ARG39      -0.0865
     20  CZ         1.4160  100.8460   76.8170 C.cat  39  ARG39       0.5346
     21  NH1        0.1900  100.4420   76.5080 N.pl3  39  ARG39       0.1354
     22  NH2        2.4140  100.6350   75.9660 N.pl3  39  ARG39       0.1354
     23  N         -1.8790  106.0870   75.1850 N.am   40  ASN40      -0.1974
     24  CA        -2.4050  106.3620   73.8510 C.3    40  ASN40       0.1688
     25  C         -1.5260  105.7990   72.7420 C.2    40  ASN40       0.2292
     26  O         -0.3770  106.2150   72.5750 O.2    40  ASN40      -0.2864
     27  CB        -2.5560  107.8660   73.6420 C.3    40  ASN40       0.1181
     28  CG        -3.6800  108.4620   74.4750 C.2    40  ASN40       0.2629
     29  OD1       -3.7780  109.6830   74.6050 O.2    40  ASN40      -0.2716
     30  ND2       -4.5400  107.6060   75.0360 N.am   40  ASN40      -0.0877
     31  N          1.7600   97.7570   78.6230 N.3    95  SER95      -0.1202
     32  CA         1.2520   98.4680   79.7890 C.3    95  SER95       0.2020
     33  C          2.3610   99.3300   80.3680 C.2    95  SER95       0.2619
     34  O          3.4440   99.4480   79.7770 O.2    95  SER95      -0.2717
     35  CB         0.7940   97.4440   80.8400 C.3    95  SER95       0.2103
     36  OG         0.3530   98.0600   82.0410 O.3    95  SER95      -0.2182
     37  N          2.0750   99.9540   81.5070 N.am   96  HIS96      -0.1961
     38  CA         3.0780  100.7530   82.1950 C.3    96  HIS96       0.1787
     39  C          3.8440   99.7710   83.0420 C.2    96  HIS96       0.2620
     40  O          3.3760   98.6500   83.2850 O.2    96  HIS96      -0.2715
     41  CB         2.4460  101.7910   83.1200 C.3    96  HIS96       0.0785
     42  CG         2.0690  103.0610   82.4270 C.ar   96  HIS96       0.0821
     43  ND1        2.9140  103.7100   81.5510 N.ar   96  HIS96      -0.2267
     44  CD2        0.9330  103.7940   82.4680 C.ar   96  HIS96       0.1154
     45  CE1        2.3100  104.7850   81.0770 C.ar   96  HIS96       0.1986
     46  NE2        1.1070  104.8580   81.6170 N.ar   96  HIS96      -0.2212
     47  N          5.0190  100.1880   83.4950 N.am   97  GLY97      -0.1954
     48  CA         5.8120   99.3110   84.3250 C.3    97  GLY97       0.1869
     49  C          6.9340  100.0330   85.0260 C.2    97  GLY97       0.2309
     50  O          7.1560  101.2170   84.8020 O.2    97  GLY97      -0.2863
     51  N          6.2530   95.1880   76.7830 N.3   137  GLN137     -0.1231
     52  CA         6.4700   96.5780   76.3820 C.3   137  GLN137      0.1698
     53  C          5.9640   97.4880   77.4970 C.2   137  GLN137      0.2592
     54  O          4.7650   97.6890   77.6790 O.2   137  GLN137     -0.2718
     55  CB         5.7420   96.8610   75.0530 C.3   137  GLN137      0.0381
     56  CG         5.4270   98.3360   74.7300 C.3   137  GLN137      0.0905
     57  CD         6.6480   99.2360   74.7060 C.2   137  GLN137      0.2608
     58  OE1        7.5870   99.0340   73.9220 O.2   137  GLN137     -0.2717
     59  NE2        6.6360  100.2510   75.5650 N.am  137  GLN137     -0.0878
     60  N          6.8980   98.0370   78.2510 N.am  138  ALA138     -0.1966
     61  CA         6.5580   98.9160   79.3590 C.3   138  ALA138      0.1728
     62  C          7.8370   99.5630   79.8500 C.2   138  ALA138      0.2616
     63  O          8.9240   99.2580   79.3600 O.2   138  ALA138     -0.2715
     64  CB         5.9300   98.1160   80.4810 C.3   138  ALA138      0.0334
     65  N          7.7130  100.4610   80.8140 N.am  139  CYS139     -0.1968
     66  CA         8.9030  101.0870   81.3560 C.3   139  CYS139      0.1712
     67  C          9.4180  100.1610   82.4370 C.2   139  CYS139      0.2296
     68  O          8.6730   99.3330   82.9690 O.2   139  CYS139     -0.2864
     69  CB         8.5790  102.4500   81.9710 C.3   139  CYS139      0.0983
     70  SG         8.1000  103.6910   80.7440 S.3   139  CYS139     -0.0798
     71  N         16.3970  107.8970   81.8920 N.3   144  TYR144     -0.1241
     72  CA        16.5430  107.9840   80.4470 C.3   144  TYR144      0.1605
     73  C         17.8610  107.3650   80.0310 C.2   144  TYR144      0.2264
     74  O         18.9180  107.7170   80.5450 O.2   144  TYR144     -0.2867
     75  CB        16.5110  109.4360   79.9720 C.3   144  TYR144      0.0534
     76  CG        15.1640  110.1120   80.0870 C.ar  144  TYR144     -0.0201
     77  CD1       14.7870  110.7920   81.2590 C.ar  144  TYR144     -0.0009
     78  CD2       14.2780  110.1110   79.0070 C.ar  144  TYR144     -0.0009
     79  CE1       13.5540  111.4660   81.3430 C.ar  144  TYR144      0.0417
     80  CE2       13.0470  110.7750   79.0760 C.ar  144  TYR144      0.0417
     81  CZ        12.6900  111.4540   80.2440 C.ar  144  TYR144      0.1957
     82  OH        11.4880  112.1340   80.2930 O.3   144  TYR144     -0.2866
@<TRIPOS>BOND
     1    26    25    2
     2    25    24    1
     3    27    24    1
     4    27    28    1
     5    24    23    1
     6    58    57    2
     7    28    29    2
     8    28    30   am
     9    57    56    1
    10    57    59   am
    11    56    55    1
    12    15    14    2
    13    55    52    1
    14    23    14   am
    15    14    13    1
    16    22    20    1
    17    52    51    1
    18    52    53    1
    19    21    20    1
    20    20    19    2
    21    11     9    1
    22    13    16    1
    23    13    12    1
    24    16    17    1
    25    53    54    2
    26    53    60   am
    27    19    18    1
    28     9    10    1
    29     9     8    2
    30    60    61    1
    31    31    32    1
    32    17    18    1
    33    78    80   ar
    34    78    76   ar
    35    80    81   ar
    36     8     7    1
    37    61    62    1
    38    61    64    1
    39    63    62    2
    40    34    33    2
    41    32    33    1
    42    32    35    1
    43    62    65   am
    44    75    76    1
    45    75    72    1
    46    73    72    1
    47    73    74    2
    48    76    77   ar
    49    81    82    1
    50    81    79   ar
    51    33    37   am
    52     7     6    1
    53    72    71    1
    54     5     6    1
    55     5     2    1
    56    70    69    1
    57    65    66    1
    58    35    36    1
    59     3     4    2
    60     3     2    1
    61    45    43   ar
    62    45    46   ar
    63    77    79   ar
    64    66    69    1
    65    66    67    1
    66     2     1    1
    67    37    38    1
    68    43    42   ar
    69    46    44   ar
    70    38    39    1
    71    38    41    1
    72    42    44   ar
    73    42    41    1
    74    67    68    2
    75    39    40    2
    76    39    47   am
    77    47    48    1
    78    48    49    1
    79    50    49    2
