@<TRIPOS>MOLECULE
tmp/1f9eH00.pdb
 103 104 0 0 0
SMALL
GASTEIGER

@<TRIPOS>ATOM
      1  N         31.0320  113.3280   42.7100 N.3    21  VAL21      -0.1231
      2  CA        30.4730  114.2620   43.6580 C.3    21  VAL21       0.1692
      3  C         31.0980  115.6350   43.4920 C.2    21  VAL21       0.2593
      4  O         32.1970  115.7650   42.9440 O.2    21  VAL21      -0.2718
      5  CB        30.7380  113.7950   45.1040 C.3    21  VAL21       0.0266
      6  CG1       30.2250  112.3680   45.2940 C.3    21  VAL21       0.0020
      7  CG2       32.2370  113.8800   45.4160 C.3    21  VAL21       0.0020
      8  N         30.3760  116.6570   43.9480 N.am   22  SER22      -0.1938
      9  CA        30.8880  118.0220   43.9330 C.3    22  SER22       0.2055
     10  C         30.8450  118.4220   45.4180 C.2    22  SER22       0.2643
     11  O         30.0550  117.8590   46.2030 O.2    22  SER22      -0.2714
     12  CB        30.0110  118.9270   43.0740 C.3    22  SER22       0.2130
     13  OG        28.6440  118.7060   43.3680 O.3    22  SER22      -0.2179
     14  N         31.6950  119.3730   45.8040 N.am   23  TYR23      -0.1959
     15  CA        31.7840  119.7810   47.1980 C.3    23  TYR23       0.1771
     16  C         31.1740  121.1110   47.6030 C.2    23  TYR23       0.2619
     17  O         31.2600  122.1200   46.8890 O.2    23  TYR23      -0.2715
     18  CB        33.2460  119.7480   47.6540 C.3    23  TYR23       0.0574
     19  CG        33.8390  118.3550   47.6440 C.ar   23  TYR23      -0.0198
     20  CD1       33.5260  117.4360   48.6570 C.ar   23  TYR23      -0.0009
     21  CD2       34.6720  117.9340   46.6020 C.ar   23  TYR23      -0.0009
     22  CE1       34.0220  116.1360   48.6290 C.ar   23  TYR23       0.0417
     23  CE2       35.1760  116.6380   46.5650 C.ar   23  TYR23       0.0417
     24  CZ        34.8450  115.7430   47.5820 C.ar   23  TYR23       0.1957
     25  OH        35.3230  114.4520   47.5580 O.3    23  TYR23      -0.2866
     26  N         30.5780  121.0800   48.7940 N.am   24  ARG24      -0.1963
     27  CA        29.9140  122.2220   49.4210 C.3    24  ARG24       0.1729
     28  C         30.4350  122.3780   50.8670 C.2    24  ARG24       0.2616
     29  O         30.3710  121.4440   51.6920 O.2    24  ARG24      -0.2715
     30  CB        28.4010  121.9740   49.4230 C.3    24  ARG24       0.0348
     31  CG        27.5520  123.0300   50.0910 C.3    24  ARG24       0.0492
     32  CD        26.2150  122.4020   50.4530 C.3    24  ARG24       0.2205
     33  NE        26.4060  121.2850   51.3760 N.pl3  24  ARG24      -0.0865
     34  CZ        25.8140  120.0950   51.2630 C.cat  24  ARG24       0.5346
     35  NH1       24.9860  119.8550   50.2570 N.pl3  24  ARG24       0.1354
     36  NH2       26.0430  119.1360   52.1570 N.pl3  24  ARG24       0.1354
     37  N         30.9700  123.5600   51.1540 N.am   25  ASN25      -0.1959
     38  CA        31.4990  123.8770   52.4790 C.3    25  ASN25       0.1804
     39  C         30.4380  124.7080   53.2140 C.2    25  ASN25       0.2463
     40  O         30.1580  125.8570   52.8350 O.2    25  ASN25      -0.2730
     41  CB        32.8090  124.6710   52.3420 C.3    25  ASN25       0.1195
     42  CG        33.4860  124.9310   53.6830 C.2    25  ASN25       0.2630
     43  OD1       33.1850  125.9080   54.3540 O.2    25  ASN25      -0.2716
     44  ND2       34.4000  124.0510   54.0730 N.am   25  ASN25      -0.0877
     45  N         29.8460  124.1400   54.2820 N.am   26  PRO26      -0.2716
     46  CA        28.8120  124.8240   55.0600 C.3    26  PRO26       0.1536
     47  C         29.1620  126.2640   55.3680 C.2    26  PRO26       0.2598
     48  O         28.2910  127.1200   55.4210 O.2    26  PRO26      -0.2715
     49  CB        28.7060  123.9700   56.3210 C.3    26  PRO26       0.0310
     50  CG        28.9770  122.6280   55.8140 C.3    26  PRO26       0.0237
     51  CD        30.1770  122.8460   54.9020 C.3    26  PRO26       0.0939
     52  N         30.4470  126.5310   55.5340 N.am   27  ALA27      -0.1978
     53  CA        30.8940  127.8660   55.8670 C.3    27  ALA27       0.1597
     54  C         31.1950  128.8010   54.7000 C.2    27  ALA27       0.2287
     55  O         31.3300  130.0060   54.9000 O.2    27  ALA27      -0.2864
     56  CB        32.1190  127.7850   56.7890 C.3    27  ALA27       0.0319
     57  N         29.8320  126.1790   47.7110 N.3    30  THR30      -0.1203
     58  CA        30.3720  125.0920   46.9000 C.3    30  THR30       0.1994
     59  C         31.6610  125.5380   46.2160 C.2    30  THR30       0.2617
     60  O         31.8280  126.7300   45.9040 O.2    30  THR30      -0.2717
     61  CB        29.3530  124.6470   45.8350 C.3    30  THR30       0.1784
     62  OG1       29.0400  125.7540   44.9610 O.3    30  THR30      -0.2211
     63  CG2       28.0790  124.1010   46.5280 C.3    30  THR30       0.0376
     64  N         32.5730  124.5900   45.9950 N.am   31  TRP31      -0.1975
     65  CA        33.8420  124.9240   45.3620 C.3    31  TRP31       0.1640
     66  C         33.5520  125.5570   44.0200 C.2    31  TRP31       0.2290
     67  O         34.1600  126.5740   43.6290 O.2    31  TRP31      -0.2864
     68  CB        34.6860  123.6720   45.1080 C.3    31  TRP31       0.0576
     69  CG        35.1820  122.9240   46.3150 C.ar   31  TRP31       0.0006
     70  CD1       34.9270  123.2010   47.6220 C.ar   31  TRP31       0.0946
     71  CD2       35.9860  121.7370   46.3060 C.ar   31  TRP31       0.0152
     72  NE1       35.5160  122.2580   48.4350 N.ar   31  TRP31      -0.2442
     73  CE2       36.1720  121.3470   47.6520 C.ar   31  TRP31       0.0810
     74  CE3       36.5660  120.9600   45.2880 C.ar   31  TRP31       0.0012
     75  CZ2       36.9140  120.2110   48.0110 C.ar   31  TRP31       0.0191
     76  CZ3       37.3060  119.8300   45.6450 C.ar   31  TRP31       0.0001
     77  CH2       37.4710  119.4680   46.9970 C.ar   31  TRP31       0.0015
     78  N         39.4080  117.3590   48.8470 N.3    66  ASP66      -0.1225
     79  CA        38.7730  116.8510   50.0390 C.3    66  ASP66       0.1805
     80  C         39.9730  116.2450   50.7110 C.2    66  ASP66       0.2598
     81  O         40.4390  115.1500   50.3700 O.2    66  ASP66      -0.2718
     82  CB        37.7350  115.7660   49.7150 C.3    66  ASP66       0.1424
     83  CG        37.0950  115.1540   50.9730 C.2    66  ASP66       0.3668
     84  OD1       36.6430  115.9100   51.8720 O.co2  66  ASP66      -0.2456
     85  OD2       37.0270  113.9060   51.0530 O.co2  66  ASP66      -0.2456
     86  N         40.4980  117.0340   51.6320 N.am   67  LYS67      -0.1966
     87  CA        41.6550  116.7040   52.4410 C.3    67  LYS67       0.1728
     88  C         41.3930  115.3790   53.1770 C.2    67  LYS67       0.2616
     89  O         42.2800  114.5260   53.2920 O.2    67  LYS67      -0.2715
     90  CB        41.8700  117.8580   53.4320 C.3    67  LYS67       0.0311
     91  CG        41.3000  119.2310   52.9490 C.3    67  LYS67       0.0038
     92  CD        39.7440  119.2650   52.9060 C.3    67  LYS67       0.0206
     93  CE        39.1720  120.6900   52.7590 C.3    67  LYS67       0.1093
     94  NZ        39.3130  121.3060   51.3990 N.3    67  LYS67      -0.1314
     95  N         40.1520  115.2340   53.6480 N.am   68  LYS68      -0.1977
     96  CA        39.6730  114.0610   54.3770 C.3    68  LYS68       0.1596
     97  C         39.8370  112.7530   53.6160 C.2    68  LYS68       0.2287
     98  O         40.8150  112.0310   53.8050 O.2    68  LYS68      -0.2864
     99  CB        38.1920  114.2280   54.7320 C.3    68  LYS68       0.0298
    100  CG        37.5270  112.9380   55.1850 C.3    68  LYS68       0.0038
    101  CD        36.0310  113.1020   55.3620 C.3    68  LYS68       0.0206
    102  CE        35.3980  111.7880   55.8070 C.3    68  LYS68       0.1093
    103  NZ        33.9970  111.9660   56.2880 N.3    68  LYS68      -0.1314
@<TRIPOS>BOND
     1     1     2    1
     2     4     3    2
     3    12    13    1
     4    12     9    1
     5     3     2    1
     6     3     8   am
     7    67    66    2
     8     2     5    1
     9     9     8    1
    10     9    10    1
    11    66    65    1
    12    62    61    1
    13     5     6    1
    14     5     7    1
    15    68    65    1
    16    68    69    1
    17    74    76   ar
    18    74    71   ar
    19    65    64    1
    20    10    14   am
    21    10    11    2
    22    76    77   ar
    23    14    15    1
    24    61    63    1
    25    61    58    1
    26    60    59    2
    27    64    59   am
    28    59    58    1
    29    71    69   ar
    30    71    73   ar
    31    69    70   ar
    32    23    21   ar
    33    23    24   ar
    34    21    19   ar
    35    17    16    2
    36    58    57    1
    37    77    75   ar
    38    15    16    1
    39    15    18    1
    40    25    24    1
    41    24    22   ar
    42    16    26   am
    43    70    72   ar
    44    19    18    1
    45    19    20   ar
    46    73    75   ar
    47    73    72   ar
    48    22    20   ar
    49    26    27    1
    50    78    79    1
    51    27    30    1
    52    27    28    1
    53    30    31    1
    54    82    79    1
    55    82    83    1
    56    79    80    1
    57    31    32    1
    58    35    34    1
    59    81    80    2
    60    32    33    1
    61    80    86   am
    62    28    37   am
    63    28    29    2
    64    83    85   ar
    65    83    84   ar
    66    37    38    1
    67    34    33    2
    68    34    36    1
    69    94    93    1
    70    86    87    1
    71    41    38    1
    72    41    42    1
    73    87    88    1
    74    87    90    1
    75    38    39    1
    76    93    92    1
    77    40    39    2
    78    92    91    1
    79    91    90    1
    80    88    89    2
    81    88    95   am
    82    39    45   am
    83    97    98    2
    84    97    96    1
    85    95    96    1
    86    42    44   am
    87    42    43    2
    88    45    51    1
    89    45    46    1
    90    96    99    1
    91    54    55    2
    92    54    53    1
    93    99   100    1
    94    51    50    1
    95    46    47    1
    96    46    49    1
    97   100   101    1
    98   101   102    1
    99    47    48    2
   100    47    52   am
   101    52    53    1
   102   102   103    1
   103    50    49    1
   104    53    56    1
