@<TRIPOS>MOLECULE
tmp/1f9kB00.pdb
 72 63 0 0 0
SMALL
GASTEIGER

@<TRIPOS>ATOM
      1  N         19.0750   55.1720    7.5360 N.3    30  VAL30      -0.1245
      2  CA        18.8360   56.5160    7.0320 C.3    30  VAL30       0.1561
      3  C         19.7790   56.7810    5.8700 C.2    30  VAL30       0.2260
      4  O         20.9210   56.3270    5.8760 O.2    30  VAL30      -0.2867
      5  CB        19.0990   57.5550    8.1460 C.3    30  VAL30       0.0252
      6  CG1       19.2330   58.9650    7.5680 C.3    30  VAL30       0.0019
      7  CG2       17.9880   57.5000    9.1440 C.3    30  VAL30       0.0019
      8  N         29.0260   66.1850    6.6000 N.3    36  LEU36      -0.1245
      9  CA        29.3100   67.4150    7.3080 C.3    36  LEU36       0.1561
     10  C         30.6350   67.3050    8.0460 C.2    36  LEU36       0.2260
     11  O         31.1790   68.3040    8.5310 O.2    36  LEU36      -0.2867
     12  CB        28.1360   67.7210    8.2520 C.3    36  LEU36       0.0270
     13  CG        28.2490   68.1620    9.7160 C.3    36  LEU36       0.0019
     14  CD1       27.0560   69.0530   10.0480 C.3    36  LEU36       0.0001
     15  CD2       28.3010   66.9540   10.6550 C.3    36  LEU36       0.0001
     16  N         15.2880   65.1490    7.3330 N.3    76  ASN76      -0.1240
     17  CA        15.7350   65.7740    8.5710 C.3    76  ASN76       0.1653
     18  C         16.9470   66.6310    8.2850 C.2    76  ASN76       0.2266
     19  O         18.0520   66.1230    8.0670 O.2    76  ASN76      -0.2867
     20  CB        16.0960   64.7220    9.6330 C.3    76  ASN76       0.1155
     21  CG        16.8820   65.3140   10.8150 C.2    76  ASN76       0.2627
     22  OD1       16.5210   66.3610   11.3570 O.2    76  ASN76      -0.2716
     23  ND2       17.9530   64.6290   11.2220 N.am   76  ASN76      -0.0877
     24  N         19.4640   69.4330    9.7380 N.3    78  THR78      -0.1218
     25  CA        19.9390   70.0180   10.9980 C.3    78  THR78       0.1862
     26  C         21.0100   71.0680   10.6540 C.2    78  THR78       0.2287
     27  O         21.9480   70.7830    9.9010 O.2    78  THR78      -0.2866
     28  CB        20.5090   68.9330   11.9380 C.3    78  THR78       0.1770
     29  OG1       19.4660   67.9870   12.1360 O.3    78  THR78      -0.2211
     30  CG2       20.9770   69.5100   13.2610 C.3    78  THR78       0.0375
     31  N         23.7930   73.1830   12.2920 N.3    80  PRO80      -0.2116
     32  CA        24.6860   73.3780   13.4290 C.3    80  PRO80       0.1372
     33  C         24.8110   74.8110   13.9090 C.2    80  PRO80       0.2244
     34  O         24.6710   75.0640   15.1030 O.2    80  PRO80      -0.2868
     35  CB        26.0140   72.8310   12.9240 C.3    80  PRO80       0.0268
     36  CG        25.5890   71.7470   12.0140 C.3    80  PRO80       0.0207
     37  CD        24.4690   72.4050   11.2430 C.3    80  PRO80       0.0892
     38  N         16.3210   70.1150   12.8800 N.3   158  GLY158     -0.1225
     39  CA        16.4850   68.7530   13.3400 C.3   158  GLY158      0.1811
     40  C         15.1750   68.0070   13.5080 C.2   158  GLY158      0.2280
     41  O         15.1710   66.8620   13.9820 O.2   158  GLY158     -0.2866
     42  N         11.5780   66.2720   12.0270 N.3   160  VAL160     -0.1245
     43  CA        11.1710   65.5090   10.8490 C.3   160  VAL160      0.1561
     44  C         10.1610   66.2470    9.9950 C.2   160  VAL160      0.2260
     45  O          9.1810   66.7830   10.4990 O.2   160  VAL160     -0.2867
     46  CB        10.5450   64.1370   11.2210 C.3   160  VAL160      0.0252
     47  CG1       10.2390   63.3520    9.9560 C.3   160  VAL160      0.0019
     48  CG2       11.4870   63.3450   12.1000 C.3   160  VAL160      0.0019
     49  N         22.8890   69.3820    7.6780 N.3   222  THR222     -0.1218
     50  CA        22.7640   67.9580    7.3920 C.3   222  THR222      0.1862
     51  C         21.5780   67.7190    6.4770 C.2   222  THR222      0.2287
     52  O         20.5930   68.4700    6.4970 O.2   222  THR222     -0.2866
     53  CB        22.5610   67.1290    8.6710 C.3   222  THR222      0.1770
     54  OG1       21.3030   67.4640    9.2750 O.3   222  THR222     -0.2211
     55  CG2       23.6740   67.4010    9.6520 C.3   222  THR222      0.0375
     56  N         19.3610   64.4770    5.6900 N.3   224  GLU224     -0.1245
     57  CA        18.9930   63.0780    5.8760 C.3   224  GLU224      0.1567
     58  C         17.5980   62.7140    5.3670 C.2   224  GLU224      0.2260
     59  O         16.6200   63.4530    5.5690 O.2   224  GLU224     -0.2867
     60  CB        19.1160   62.7090    7.3490 C.3   224  GLU224      0.0388
     61  CG        20.5280   62.3810    7.7700 C.3   224  GLU224      0.1160
     62  CD        20.6630   62.2480    9.2630 C.2   224  GLU224      0.3649
     63  OE1       19.8470   61.5220    9.8720 O.co2 224  GLU224     -0.2457
     64  OE2       21.5880   62.8670    9.8230 O.co2 224  GLU224     -0.2457
     65  N         14.8340   59.8340    5.6400 N.3   226  ILE226     -0.1245
     66  CA        14.3420   58.7090    6.4330 C.3   226  ILE226      0.1561
     67  C         13.5730   57.6360    5.6640 C.2   226  ILE226      0.2260
     68  O         13.8200   56.4310    5.8280 O.2   226  ILE226     -0.2867
     69  CB        13.4260   59.2100    7.5440 C.3   226  ILE226      0.0252
     70  CG1       14.1540   60.2720    8.3670 C.3   226  ILE226      0.0019
     71  CG2       12.9960   58.0420    8.4100 C.3   226  ILE226      0.0019
     72  CD1       13.2790   60.9910    9.3700 C.3   226  ILE226      0.0001
@<TRIPOS>BOND
     1    58    59    2
     2    58    57    1
     3    65    66    1
     4    67    68    2
     5    67    66    1
     6    56    57    1
     7     3     4    2
     8     3     2    1
     9    57    60    1
    10    66    69    1
    11    51    52    2
    12    51    50    1
    13     8     9    1
    14     2     1    1
    15     2     5    1
    16     9    10    1
    17     9    12    1
    18    16    17    1
    19    60    61    1
    20    50    49    1
    21    50    53    1
    22    69    70    1
    23    69    71    1
    24     6     5    1
    25    61    62    1
    26    10    11    2
    27    19    18    2
    28     5     7    1
    29    12    13    1
    30    18    17    1
    31    70    72    1
    32    17    20    1
    33    53    54    1
    34    53    55    1
    35    62    64   ar
    36    62    63   ar
    37    20    21    1
    38    13    14    1
    39    13    15    1
    40    24    25    1
    41    27    26    2
    42    47    46    1
    43    44    45    2
    44    44    43    1
    45    26    25    1
    46    21    23   am
    47    21    22    2
    48    43    46    1
    49    43    42    1
    50    25    28    1
    51    46    48    1
    52    37    36    1
    53    37    31    1
    54    28    29    1
    55    28    30    1
    56    36    35    1
    57    31    32    1
    58    38    39    1
    59    35    32    1
    60    39    40    1
    61    32    33    1
    62    40    41    2
    63    33    34    2
