@<TRIPOS>MOLECULE
tmp/1f9oA01.pdb
 144 137 0 0 0
SMALL
GASTEIGER

@<TRIPOS>ATOM
      1  N         55.3590   75.7460   54.5340 N.3   112  ALA112     -0.1245
      2  CA        54.8790   77.0870   54.8390 C.3   112  ALA112      0.1562
      3  C         55.0230   77.8420   53.5260 C.2   112  ALA112      0.2260
      4  O         56.0800   77.8010   52.8930 O.2   112  ALA112     -0.2867
      5  CB        55.7280   77.7360   55.9390 C.3   112  ALA112      0.0290
      6  N         55.1860   80.9960   50.6450 N.3   114  GLU114     -0.1245
      7  CA        56.0060   82.1800   50.4410 C.3   114  GLU114      0.1567
      8  C         55.0860   83.2270   49.8190 C.2   114  GLU114      0.2260
      9  O         54.2260   82.8880   49.0100 O.2   114  GLU114     -0.2867
     10  CB        57.1590   81.8620   49.4880 C.3   114  GLU114      0.0388
     11  CG        58.4040   81.3390   50.1680 C.3   114  GLU114      0.1160
     12  CD        59.5020   80.9970   49.1820 C.2   114  GLU114      0.3649
     13  OE1       59.6440   81.7140   48.1610 O.co2 114  GLU114     -0.2457
     14  OE2       60.2370   80.0200   49.4350 O.co2 114  GLU114     -0.2457
     15  N         52.2030   77.7340   59.0000 N.3   125  LEU125     -0.1245
     16  CA        52.6630   76.3660   58.8130 C.3   125  LEU125      0.1561
     17  C         51.4410   75.4910   58.5370 C.2   125  LEU125      0.2260
     18  O         50.3710   75.6770   59.1250 O.2   125  LEU125     -0.2867
     19  CB        53.3980   75.8600   60.0610 C.3   125  LEU125      0.0270
     20  CG        54.7520   76.5230   60.3600 C.3   125  LEU125      0.0019
     21  CD1       55.3740   75.9040   61.6100 C.3   125  LEU125      0.0001
     22  CD2       55.6830   76.3410   59.1630 C.3   125  LEU125      0.0001
     23  N         70.5630   86.7400   61.5320 N.3   178  ASN178     -0.1240
     24  CA        70.0290   86.5800   60.1860 C.3   178  ASN178      0.1653
     25  C         69.1100   87.7610   59.8730 C.2   178  ASN178      0.2266
     26  O         68.5730   88.4140   60.7720 O.2   178  ASN178     -0.2867
     27  CB        69.2480   85.2750   60.0160 C.3   178  ASN178      0.1155
     28  CG        69.2910   84.7550   58.5640 C.2   178  ASN178      0.2627
     29  OD1       69.3760   85.5320   57.6030 O.2   178  ASN178     -0.2716
     30  ND2       69.2270   83.4350   58.4090 N.am  178  ASN178     -0.0877
     31  N         67.1460   88.5030   56.0150 N.3   180  PHE180     -0.1227
     32  CA        66.0930   88.1180   55.0790 C.3   180  PHE180      0.1736
     33  C         65.2420   86.9370   55.5550 C.2   180  PHE180      0.2595
     34  O         65.7630   85.8930   55.9630 O.2   180  PHE180     -0.2718
     35  CB        66.7110   87.8210   53.7080 C.3   180  PHE180      0.0547
     36  CG        67.4940   88.9800   53.1310 C.ar  180  PHE180     -0.0202
     37  CD1       66.8450   90.1350   52.7110 C.ar  180  PHE180     -0.0042
     38  CD2       68.8840   88.9200   53.0270 C.ar  180  PHE180     -0.0042
     39  CE1       67.5600   91.2080   52.1970 C.ar  180  PHE180     -0.0003
     40  CE2       69.6060   89.9900   52.5130 C.ar  180  PHE180     -0.0003
     41  CZ        68.9400   91.1390   52.0980 C.ar  180  PHE180     -0.0000
     42  N         63.9240   87.1210   55.4950 N.am  181  GLN181     -0.1979
     43  CA        62.9690   86.1040   55.9200 C.3   181  GLN181      0.1601
     44  C         61.6340   86.1960   55.1910 C.2   181  GLN181      0.2287
     45  O         60.9580   85.1840   55.0210 O.2   181  GLN181     -0.2864
     46  CB        62.6620   86.2500   57.4170 C.3   181  GLN181      0.0394
     47  CG        63.7620   85.8990   58.3830 C.3   181  GLN181      0.0908
     48  CD        63.9350   84.4070   58.5450 C.2   181  GLN181      0.2608
     49  OE1       63.1070   83.6230   58.0790 O.2   181  GLN181     -0.2717
     50  NE2       65.0030   84.0030   59.2280 N.am  181  GLN181     -0.0878
     51  N         57.7280   85.8810   61.4610 N.3   212  PHE212     -0.1227
     52  CA        57.9270   85.1380   60.2150 C.3   212  PHE212      0.1736
     53  C         57.0790   83.8940   59.9260 C.2   212  PHE212      0.2596
     54  O         56.5260   83.7690   58.8360 O.2   212  PHE212     -0.2718
     55  CB        59.4100   84.8210   60.1170 C.3   212  PHE212      0.0547
     56  CG        60.2890   86.0180   60.3910 C.ar  212  PHE212     -0.0202
     57  CD1       60.2440   87.1330   59.5550 C.ar  212  PHE212     -0.0042
     58  CD2       61.1240   86.0490   61.5050 C.ar  212  PHE212     -0.0042
     59  CE1       61.0170   88.2570   59.8250 C.ar  212  PHE212     -0.0003
     60  CE2       61.8990   87.1710   61.7800 C.ar  212  PHE212     -0.0003
     61  CZ        61.8440   88.2760   60.9410 C.ar  212  PHE212     -0.0000
     62  N         56.9910   82.9550   60.8580 N.am  213  THR213     -0.1953
     63  CA        56.1280   81.8030   60.6270 C.3   213  THR213      0.1897
     64  C         55.1440   81.6930   61.7760 C.2   213  THR213      0.2313
     65  O         55.5110   81.8460   62.9340 O.2   213  THR213     -0.2863
     66  CB        56.8960   80.4710   60.4990 C.3   213  THR213      0.1794
     67  OG1       57.9570   80.4340   61.4490 O.3   213  THR213     -0.2208
     68  CG2       57.4370   80.3010   59.0910 C.3   213  THR213      0.0378
     69  N         68.2280   78.4960   64.2270 N.3   224  LYS224     -0.1245
     70  CA        68.1110   78.2450   62.8030 C.3   224  LYS224      0.1561
     71  C         69.2940   78.9160   62.1320 C.2   224  LYS224      0.2260
     72  O         69.6950   80.0180   62.5250 O.2   224  LYS224     -0.2867
     73  CB        66.8010   78.8240   62.2550 C.3   224  LYS224      0.0271
     74  CG        66.4980   80.2310   62.7410 C.3   224  LYS224      0.0035
     75  CD        65.6350   80.1980   64.0070 C.3   224  LYS224      0.0206
     76  CE        65.8860   81.4110   64.9050 C.3   224  LYS224      0.1093
     77  NZ        65.6320   82.7160   64.2300 N.3   224  LYS224     -0.1314
     78  N         71.2060   79.5300   58.0960 N.3   226  THR226     -0.1218
     79  CA        70.9810   79.5220   56.6610 C.3   226  THR226      0.1862
     80  C         72.3130   79.5690   55.9440 C.2   226  THR226      0.2287
     81  O         73.1680   80.3890   56.2590 O.2   226  THR226     -0.2866
     82  CB        70.1400   80.7370   56.2360 C.3   226  THR226      0.1770
     83  OG1       68.9440   80.7720   57.0190 O.3   226  THR226     -0.2211
     84  CG2       69.7670   80.6490   54.7570 C.3   226  THR226      0.0375
     85  N         63.1180   72.8950   48.1950 N.3   274  LYS274     -0.1231
     86  CA        62.8900   73.3470   49.5660 C.3   274  LYS274      0.1693
     87  C         62.2120   72.3040   50.4590 C.2   274  LYS274      0.2592
     88  O         62.6990   71.9890   51.5410 O.2   274  LYS274     -0.2718
     89  CB        62.0550   74.6300   49.5530 C.3   274  LYS274      0.0285
     90  CG        61.9930   75.3480   50.8900 C.3   274  LYS274      0.0035
     91  CD        61.1680   76.6160   50.7880 C.3   274  LYS274      0.0206
     92  CE        61.1450   77.3670   52.1030 C.3   274  LYS274      0.1093
     93  NZ        60.1130   78.4460   52.1110 N.3   274  LYS274     -0.1314
     94  N         61.0850   71.7700   50.0090 N.am  275  TYR275     -0.1976
     95  CA        60.3630   70.7760   50.7960 C.3   275  TYR275      0.1639
     96  C         60.4210   69.4080   50.1350 C.2   275  TYR275      0.2290
     97  O         59.5240   68.5790   50.2960 O.2   275  TYR275     -0.2864
     98  CB        58.9180   71.2340   51.0010 C.3   275  TYR275      0.0560
     99  CG        58.8210   72.4630   51.8830 C.ar  275  TYR275     -0.0198
    100  CD1       59.1710   72.4020   53.2370 C.ar  275  TYR275     -0.0009
    101  CD2       58.4200   73.6960   51.3620 C.ar  275  TYR275     -0.0009
    102  CE1       59.1270   73.5380   54.0520 C.ar  275  TYR275      0.0417
    103  CE2       58.3740   74.8450   52.1690 C.ar  275  TYR275      0.0417
    104  CZ        58.7290   74.7570   53.5080 C.ar  275  TYR275      0.1957
    105  OH        58.6910   75.8770   54.3060 O.3   275  TYR275     -0.2866
    106  N         69.8850   78.4640   48.8460 N.3   299  TYR299     -0.1241
    107  CA        70.2650   78.1100   50.2100 C.3   299  TYR299      0.1605
    108  C         69.7460   76.7440   50.6230 C.2   299  TYR299      0.2264
    109  O         69.0260   76.0720   49.8810 O.2   299  TYR299     -0.2867
    110  CB        69.6790   79.1370   51.1890 C.3   299  TYR299      0.0534
    111  CG        68.1600   79.2390   51.1070 C.ar  299  TYR299     -0.0201
    112  CD1       67.3390   78.1880   51.5370 C.ar  299  TYR299     -0.0009
    113  CD2       67.5460   80.3490   50.5240 C.ar  299  TYR299     -0.0009
    114  CE1       65.9500   78.2360   51.3760 C.ar  299  TYR299      0.0417
    115  CE2       66.1600   80.4090   50.3610 C.ar  299  TYR299      0.0417
    116  CZ        65.3680   79.3460   50.7830 C.ar  299  TYR299      0.1957
    117  OH        64.0020   79.3760   50.5710 O.3   299  TYR299     -0.2866
    118  N         68.8350   75.2740   54.7570 N.3   301  ALA301     -0.1245
    119  CA        68.8320   75.7670   56.1250 C.3   301  ALA301      0.1562
    120  C         68.3700   74.7030   57.0970 C.2   301  ALA301      0.2260
    121  O         67.7040   73.7340   56.7190 O.2   301  ALA301     -0.2867
    122  CB        67.9350   77.0000   56.2280 C.3   301  ALA301      0.0290
    123  N         64.9230   70.3260   61.7840 N.3   312  TRP312     -0.1241
    124  CA        64.4740   70.3480   60.3990 C.3   312  TRP312      0.1605
    125  C         65.5840   70.8000   59.4570 C.2   312  TRP312      0.2264
    126  O         66.5460   71.4310   59.8750 O.2   312  TRP312     -0.2867
    127  CB        63.2820   71.2940   60.2520 C.3   312  TRP312      0.0550
    128  CG        63.5670   72.6730   60.7670 C.ar  312  TRP312      0.0003
    129  CD1       63.4720   73.1030   62.0610 C.ar  312  TRP312      0.0946
    130  CD2       64.0860   73.7780   60.0150 C.ar  312  TRP312      0.0152
    131  NE1       63.9050   74.4030   62.1640 N.ar  312  TRP312     -0.2442
    132  CE2       64.2890   74.8420   60.9220 C.ar  312  TRP312      0.0810
    133  CE3       64.4050   73.9700   58.6630 C.ar  312  TRP312      0.0012
    134  CZ2       64.7970   76.0800   60.5210 C.ar  312  TRP312      0.0191
    135  CZ3       64.9110   75.2060   58.2660 C.ar  312  TRP312      0.0001
    136  CH2       65.1010   76.2410   59.1940 C.ar  312  TRP312      0.0015
    137  N         65.9950   72.1940   55.1450 N.3   314  ILE314     -0.1245
    138  CA        65.3320   72.4850   53.8770 C.3   314  ILE314      0.1561
    139  C         66.3330   72.8210   52.7920 C.2   314  ILE314      0.2260
    140  O         67.4320   73.3060   53.0700 O.2   314  ILE314     -0.2867
    141  CB        64.3590   73.6860   53.9670 C.3   314  ILE314      0.0252
    142  CG1       65.1180   74.9470   54.4040 C.3   314  ILE314      0.0019
    143  CG2       63.2130   73.3580   54.8940 C.3   314  ILE314      0.0019
    144  CD1       64.2690   76.2110   54.4420 C.3   314  ILE314      0.0001
@<TRIPOS>BOND
     1    13    12   ar
     2    85    86    1
     3   106   107    1
     4     9     8    2
     5    12    14   ar
     6    12    11    1
     7    10    11    1
     8    10     7    1
     9    89    86    1
    10    89    90    1
    11    86    87    1
    12     8     7    1
    13   109   108    2
    14    94    87   am
    15    94    95    1
    16    96    97    2
    17    96    95    1
    18   107   108    1
    19   107   110    1
    20   115   113   ar
    21   115   116   ar
    22     7     6    1
    23    87    88    2
    24   113   111   ar
    25   117   116    1
    26   116   114   ar
    27    91    90    1
    28    91    92    1
    29    95    98    1
    30    98    99    1
    31   111   110    1
    32   111   112   ar
    33   101    99   ar
    34   101   103   ar
    35   114   112   ar
    36    99   100   ar
    37    41    39   ar
    38    41    40   ar
    39    92    93    1
    40   103   104   ar
    41    39    37   ar
    42    40    38   ar
    43    37    36   ar
    44   139   140    2
    45   139   138    1
    46     4     3    2
    47    38    36   ar
    48    36    35    1
    49   100   102   ar
    50   104   102   ar
    51   104   105    1
    52     3     2    1
    53    35    32    1
    54   138   141    1
    55   138   137    1
    56   141   142    1
    57   141   143    1
    58   142   144    1
    59     1     2    1
    60   118   119    1
    61    84    82    1
    62     2     5    1
    63    45    44    2
    64    32    33    1
    65    32    31    1
    66    44    43    1
    67    42    33   am
    68    42    43    1
    69    33    34    2
    70    43    46    1
    71    80    81    2
    72    80    79    1
    73   119   122    1
    74   119   120    1
    75    82    79    1
    76    82    83    1
    77    79    78    1
    78   121   120    2
    79    46    47    1
    80    29    28    2
    81    49    48    2
    82   135   133   ar
    83   135   136   ar
    84    47    48    1
    85    30    28   am
    86    17    16    1
    87    17    18    2
    88    48    50   am
    89    28    27    1
    90   133   130   ar
    91    16    15    1
    92    16    19    1
    93    54    53    2
    94    68    66    1
    95    22    20    1
    96   136   134   ar
    97   125   126    2
    98   125   124    1
    99    57    59   ar
   100    57    56   ar
   101    59    61   ar
   102    25    24    1
   103    25    26    2
   104    53    52    1
   105    53    62   am
   106   130   128   ar
   107   130   132   ar
   108    27    24    1
   109    19    20    1
   110    55    52    1
   111    55    56    1
   112    24    23    1
   113    52    51    1
   114   127   124    1
   115   127   128    1
   116    20    21    1
   117    56    58   ar
   118   124   123    1
   119    66    63    1
   120    66    67    1
   121   134   132   ar
   122    63    62    1
   123    63    64    1
   124   128   129   ar
   125   132   131   ar
   126    61    60   ar
   127    58    60   ar
   128    64    65    2
   129   129   131   ar
   130    71    72    2
   131    71    70    1
   132    73    74    1
   133    73    70    1
   134    74    75    1
   135    70    69    1
   136    75    76    1
   137    77    76    1
