@<TRIPOS>MOLECULE
tmp/1f9oA03.pdb
 102 98 0 0 0
SMALL
GASTEIGER

@<TRIPOS>ATOM
      1  N         66.3440   95.0640   44.7470 N.3   406  PRO406     -0.2116
      2  CA        66.2380   95.0650   43.2880 C.3   406  PRO406      0.1372
      3  C         66.3850   93.6430   42.7490 C.2   406  PRO406      0.2244
      4  O         66.8100   92.7520   43.4710 O.2   406  PRO406     -0.2868
      5  CB        67.3940   95.9560   42.8790 C.3   406  PRO406      0.0268
      6  CG        68.4570   95.5070   43.8390 C.3   406  PRO406      0.0207
      7  CD        67.7030   95.4660   45.1580 C.3   406  PRO406      0.0892
      8  N         72.3870   93.1060   38.5280 N.3   411  TRP411     -0.1241
      9  CA        73.7470   93.5070   38.8790 C.3   411  TRP411      0.1605
     10  C         74.7280   92.7410   37.9900 C.2   411  TRP411      0.2264
     11  O         74.7580   91.5090   38.0000 O.2   411  TRP411     -0.2867
     12  CB        74.0320   93.1820   40.3440 C.3   411  TRP411      0.0550
     13  CG        75.4470   93.4710   40.7830 C.ar  411  TRP411      0.0003
     14  CD1       76.1450   94.6300   40.5930 C.ar  411  TRP411      0.0946
     15  CD2       76.3170   92.5960   41.5110 C.ar  411  TRP411      0.0152
     16  NE1       77.3920   94.5310   41.1590 N.ar  411  TRP411     -0.2442
     17  CE2       77.5240   93.2940   41.7290 C.ar  411  TRP411      0.0810
     18  CE3       76.1920   91.2880   42.0030 C.ar  411  TRP411      0.0012
     19  CZ2       78.6030   92.7300   42.4170 C.ar  411  TRP411      0.0191
     20  CZ3       77.2650   90.7230   42.6880 C.ar  411  TRP411      0.0001
     21  CH2       78.4550   91.4480   42.8880 C.ar  411  TRP411      0.0015
     22  N         77.0990   97.9080   34.7000 N.3   461  SER461     -0.1202
     23  CA        76.8330   97.9160   36.1270 C.3   461  SER461      0.2020
     24  C         75.4470   97.3550   36.4140 C.2   461  SER461      0.2619
     25  O         75.2990   96.3700   37.1370 O.2   461  SER461     -0.2717
     26  CB        76.9440   99.3350   36.6730 C.3   461  SER461      0.2103
     27  OG        76.8060   99.3340   38.0850 O.3   461  SER461     -0.2182
     28  N         74.4350   98.0030   35.8500 N.am  462  THR462     -0.1952
     29  CA        73.0530   97.5830   36.0090 C.3   462  THR462      0.1897
     30  C         72.5880   97.1230   34.6320 C.2   462  THR462      0.2313
     31  O         72.7820   97.8270   33.6390 O.2   462  THR462     -0.2863
     32  CB        72.1580   98.7500   36.4690 C.3   462  THR462      0.1794
     33  OG1       72.5860   99.2040   37.7580 O.3   462  THR462     -0.2208
     34  CG2       70.7040   98.3070   36.5530 C.3   462  THR462      0.0378
     35  N         73.0880  100.9360   32.7010 N.3   490  ASN490     -0.1240
     36  CA        74.1120  101.9440   32.9280 C.3   490  ASN490      0.1653
     37  C         75.4620  101.3410   33.2900 C.2   490  ASN490      0.2266
     38  O         75.5530  100.2030   33.7570 O.2   490  ASN490     -0.2867
     39  CB        73.6760  102.9450   34.0040 C.3   490  ASN490      0.1155
     40  CG        73.1720  102.2740   35.2520 C.2   490  ASN490      0.2627
     41  OD1       73.8230  101.3820   35.7940 O.2   490  ASN490     -0.2716
     42  ND2       72.0070  102.7070   35.7280 N.am  490  ASN490     -0.0877
     43  N         83.0180   99.7230   38.9870 N.3   494  ASP494     -0.1239
     44  CA        83.0420   98.8140   40.1210 C.3   494  ASP494      0.1674
     45  C         84.3690   98.0640   40.1080 C.2   494  ASP494      0.2266
     46  O         84.5900   97.1690   39.2900 O.2   494  ASP494     -0.2867
     47  CB        81.8990   97.8100   40.0400 C.3   494  ASP494      0.1410
     48  CG        81.6790   97.0840   41.3560 C.2   494  ASP494      0.3668
     49  OD1       82.6450   96.5030   41.9010 O.co2 494  ASP494     -0.2456
     50  OD2       80.5340   97.1040   41.8460 O.co2 494  ASP494     -0.2456
     51  N         81.6950  106.6840   44.6480 N.3   542  GLU542     -0.1231
     52  CA        80.5200  106.1310   43.9890 C.3   542  GLU542      0.1699
     53  C         79.2740  106.6720   44.6710 C.2   542  GLU542      0.2592
     54  O         79.3190  107.0350   45.8450 O.2   542  GLU542     -0.2718
     55  CB        80.5370  104.6070   44.0790 C.3   542  GLU542      0.0402
     56  CG        80.3180  104.0650   45.4800 C.3   542  GLU542      0.1161
     57  CD        80.2840  102.5410   45.5210 C.2   542  GLU542      0.3649
     58  OE1       81.3590  101.9030   45.3980 O.co2 542  GLU542     -0.2457
     59  OE2       79.1720  101.9860   45.6660 O.co2 542  GLU542     -0.2457
     60  N         78.1640  106.7330   43.9440 N.am  543  GLN543     -0.1966
     61  CA        76.9290  107.2290   44.5290 C.3   543  GLN543      0.1733
     62  C         76.1860  106.1270   45.2570 C.2   543  GLN543      0.2616
     63  O         76.2200  104.9750   44.8420 O.2   543  GLN543     -0.2715
     64  CB        76.0350  107.8310   43.4470 C.3   543  GLN543      0.0408
     65  CG        76.6180  109.0940   42.8430 C.3   543  GLN543      0.0908
     66  CD        75.6210  109.8640   42.0050 C.2   543  GLN543      0.2608
     67  OE1       75.6090  111.0960   42.0190 O.2   543  GLN543     -0.2717
     68  NE2       74.7850  109.1480   41.2600 N.am  543  GLN543     -0.0878
     69  N         75.5370  106.4830   46.3620 N.am  544  ARG544     -0.1963
     70  CA        74.7550  105.5290   47.1400 C.3   544  ARG544      0.1729
     71  C         73.3000  105.9340   46.9150 C.2   544  ARG544      0.2617
     72  O         72.6510  106.5340   47.7760 O.2   544  ARG544     -0.2715
     73  CB        75.1270  105.6090   48.6260 C.3   544  ARG544      0.0348
     74  CG        76.6360  105.5270   48.8920 C.3   544  ARG544      0.0492
     75  CD        77.2520  104.2770   48.2890 C.3   544  ARG544      0.2205
     76  NE        76.9990  103.0940   49.1040 N.pl3 544  ARG544     -0.0865
     77  CZ        76.6610  101.9070   48.6140 C.cat 544  ARG544      0.5346
     78  NH1       76.5280  101.7390   47.3040 N.pl3 544  ARG544      0.1354
     79  NH2       76.4600  100.8900   49.4370 N.pl3 544  ARG544      0.1354
     80  N         72.8080  105.5880   45.7300 N.am  545  GLY545     -0.1940
     81  CA        71.4600  105.9340   45.3250 C.3   545  GLY545      0.2014
     82  C         70.2690  105.4150   46.0960 C.2   545  GLY545      0.2638
     83  O         69.1520  105.8050   45.7910 O.2   545  GLY545     -0.2714
     84  N         70.4760  104.5560   47.0840 N.am  546  ASP546     -0.1971
     85  CA        69.3550  104.0210   47.8490 C.3   546  ASP546      0.1709
     86  C         69.3510  104.4580   49.2900 C.2   546  ASP546      0.2293
     87  O         68.4520  104.0980   50.0400 O.2   546  ASP546     -0.2864
     88  CB        69.3550  102.4880   47.8290 C.3   546  ASP546      0.1436
     89  CG        68.8570  101.9190   46.5180 C.2   546  ASP546      0.3671
     90  OD1       68.0910  102.6190   45.8210 O.co2 546  ASP546     -0.2456
     91  OD2       69.2140  100.7640   46.1950 O.co2 546  ASP546     -0.2456
     92  N         85.4250   97.4830   50.1400 N.3   609  ARG609     -0.1245
     93  CA        84.7720   96.2030   50.3750 C.3   609  ARG609      0.1563
     94  C         85.8650   95.1450   50.3860 C.2   609  ARG609      0.2260
     95  O         86.6310   95.0240   49.4240 O.2   609  ARG609     -0.2867
     96  CB        83.7640   95.9030   49.2600 C.3   609  ARG609      0.0307
     97  CG        82.6230   96.9080   49.1650 C.3   609  ARG609      0.0489
     98  CD        81.7850   96.6960   47.9100 C.3   609  ARG609      0.2205
     99  NE        80.6330   97.5960   47.8280 N.pl3 609  ARG609     -0.0865
    100  CZ        80.6240   98.7800   47.2170 C.cat 609  ARG609      0.5346
    101  NH1       81.7130   99.2480   46.6220 N.pl3 609  ARG609      0.1354
    102  NH2       79.5020   99.4870   47.1660 N.pl3 609  ARG609      0.1354
@<TRIPOS>BOND
     1    35    36    1
     2    36    37    1
     3    36    39    1
     4    37    38    2
     5    31    30    2
     6    39    40    1
     7    30    29    1
     8    22    23    1
     9    40    42   am
    10    40    41    2
    11    28    29    1
    12    28    24   am
    13    29    32    1
    14    23    24    1
    15    23    26    1
    16    24    25    2
    17    32    34    1
    18    32    33    1
    19    26    27    1
    20    10    11    2
    21    10     9    1
    22     8     9    1
    23     9    12    1
    24    43    44    1
    25    46    45    2
    26    47    44    1
    27    47    48    1
    28    45    44    1
    29    12    13    1
    30    14    13   ar
    31    14    16   ar
    32    13    15   ar
    33    16    17   ar
    34    68    66   am
    35    48    50   ar
    36    48    49   ar
    37    15    17   ar
    38    15    18   ar
    39    17    19   ar
    40    18    20   ar
    41    66    67    2
    42    66    65    1
    43    19    21   ar
    44    20    21   ar
    45     3     2    1
    46     3     4    2
    47    65    64    1
    48     5     2    1
    49     5     6    1
    50     2     1    1
    51    64    61    1
    52     6     7    1
    53    60    61    1
    54    60    53   am
    55    52    55    1
    56    52    51    1
    57    52    53    1
    58    55    56    1
    59    61    62    1
    60    53    54    2
    61     1     7    1
    62    63    62    2
    63    62    69   am
    64    81    80    1
    65    81    82    1
    66    58    57   ar
    67    56    57    1
    68    57    59   ar
    69    80    71   am
    70    83    82    2
    71    90    89   ar
    72    82    84   am
    73    91    89   ar
    74    69    70    1
    75    89    88    1
    76   101   100    1
    77    71    70    1
    78    71    72    2
    79    84    85    1
    80    70    73    1
    81   102   100    1
    82   100    99    2
    83    78    77    1
    84    99    98    1
    85    88    85    1
    86    85    86    1
    87    98    97    1
    88    75    74    1
    89    75    76    1
    90    77    76    2
    91    77    79    1
    92    73    74    1
    93    97    96    1
    94    96    93    1
    95    86    87    2
    96    95    94    2
    97    92    93    1
    98    93    94    1
