@<TRIPOS>MOLECULE
tmp/1f9oA04.pdb
 135 130 0 0 0
SMALL
GASTEIGER

@<TRIPOS>ATOM
      1  N         55.1860   80.9960   50.6450 N.3   114  GLU114     -0.1245
      2  CA        56.0060   82.1800   50.4410 C.3   114  GLU114      0.1567
      3  C         55.0860   83.2270   49.8190 C.2   114  GLU114      0.2260
      4  O         54.2260   82.8880   49.0100 O.2   114  GLU114     -0.2867
      5  CB        57.1590   81.8620   49.4880 C.3   114  GLU114      0.0388
      6  CG        58.4040   81.3390   50.1680 C.3   114  GLU114      0.1160
      7  CD        59.5020   80.9970   49.1820 C.2   114  GLU114      0.3649
      8  OE1       59.6440   81.7140   48.1610 O.co2 114  GLU114     -0.2457
      9  OE2       60.2370   80.0200   49.4350 O.co2 114  GLU114     -0.2457
     10  N         70.5630   86.7400   61.5320 N.3   178  ASN178     -0.1240
     11  CA        70.0290   86.5800   60.1860 C.3   178  ASN178      0.1653
     12  C         69.1100   87.7610   59.8730 C.2   178  ASN178      0.2266
     13  O         68.5730   88.4140   60.7720 O.2   178  ASN178     -0.2867
     14  CB        69.2480   85.2750   60.0160 C.3   178  ASN178      0.1155
     15  CG        69.2910   84.7550   58.5640 C.2   178  ASN178      0.2627
     16  OD1       69.3760   85.5320   57.6030 O.2   178  ASN178     -0.2716
     17  ND2       69.2270   83.4350   58.4090 N.am  178  ASN178     -0.0877
     18  N         67.1460   88.5030   56.0150 N.3   180  PHE180     -0.1227
     19  CA        66.0930   88.1180   55.0790 C.3   180  PHE180      0.1736
     20  C         65.2420   86.9370   55.5550 C.2   180  PHE180      0.2595
     21  O         65.7630   85.8930   55.9630 O.2   180  PHE180     -0.2718
     22  CB        66.7110   87.8210   53.7080 C.3   180  PHE180      0.0547
     23  CG        67.4940   88.9800   53.1310 C.ar  180  PHE180     -0.0202
     24  CD1       66.8450   90.1350   52.7110 C.ar  180  PHE180     -0.0042
     25  CD2       68.8840   88.9200   53.0270 C.ar  180  PHE180     -0.0042
     26  CE1       67.5600   91.2080   52.1970 C.ar  180  PHE180     -0.0003
     27  CE2       69.6060   89.9900   52.5130 C.ar  180  PHE180     -0.0003
     28  CZ        68.9400   91.1390   52.0980 C.ar  180  PHE180     -0.0000
     29  N         63.9240   87.1210   55.4950 N.am  181  GLN181     -0.1965
     30  CA        62.9690   86.1040   55.9200 C.3   181  GLN181      0.1733
     31  C         61.6340   86.1960   55.1910 C.2   181  GLN181      0.2616
     32  O         60.9580   85.1840   55.0210 O.2   181  GLN181     -0.2715
     33  CB        62.6620   86.2500   57.4170 C.3   181  GLN181      0.0408
     34  CG        63.7620   85.8990   58.3830 C.3   181  GLN181      0.0908
     35  CD        63.9350   84.4070   58.5450 C.2   181  GLN181      0.2608
     36  OE1       63.1070   83.6230   58.0790 O.2   181  GLN181     -0.2717
     37  NE2       65.0030   84.0030   59.2280 N.am  181  GLN181     -0.0878
     38  N         61.2670   87.3980   54.7530 N.am  182  ARG182     -0.1963
     39  CA        59.9520   87.6220   54.1600 C.3   182  ARG182      0.1729
     40  C         59.6980   87.8240   52.6610 C.2   182  ARG182      0.2616
     41  O         58.9920   88.7590   52.2730 O.2   182  ARG182     -0.2715
     42  CB        59.2790   88.7690   54.9360 C.3   182  ARG182      0.0348
     43  CG        59.3340   88.5900   56.4680 C.3   182  ARG182      0.0492
     44  CD        58.7040   89.7440   57.2550 C.3   182  ARG182      0.2205
     45  NE        59.5370   90.9470   57.2870 N.pl3 182  ARG182     -0.0865
     46  CZ        59.2140   92.0690   57.9300 C.cat 182  ARG182      0.5346
     47  NH1       58.0730   92.1600   58.6040 N.pl3 182  ARG182      0.1354
     48  NH2       60.0350   93.1090   57.9030 N.pl3 182  ARG182      0.1354
     49  N         60.2550   86.9610   51.8170 N.am  183  GLY183     -0.1955
     50  CA        59.9770   87.0620   50.3920 C.3   183  GLY183      0.1869
     51  C         60.7750   87.9490   49.4560 C.2   183  GLY183      0.2309
     52  O         61.6730   88.6910   49.8620 O.2   183  GLY183     -0.2863
     53  N         61.3010   91.7610   50.0610 N.3   186  GLU186     -0.1245
     54  CA        61.9720   92.2310   51.2670 C.3   186  GLU186      0.1567
     55  C         63.4580   92.5070   51.0080 C.2   186  GLU186      0.2260
     56  O         64.2790   91.5940   50.9620 O.2   186  GLU186     -0.2867
     57  CB        61.8060   91.2220   52.4070 C.3   186  GLU186      0.0388
     58  CG        62.4360   91.6770   53.7040 C.3   186  GLU186      0.1160
     59  CD        62.4240   90.6080   54.7710 C.2   186  GLU186      0.3649
     60  OE1       62.8290   89.4660   54.4620 O.co2 186  GLU186     -0.2457
     61  OE2       62.0280   90.9110   55.9200 O.co2 186  GLU186     -0.2457
     62  N         71.2060   79.5300   58.0960 N.3   226  THR226     -0.1218
     63  CA        70.9810   79.5220   56.6610 C.3   226  THR226      0.1862
     64  C         72.3130   79.5690   55.9440 C.2   226  THR226      0.2287
     65  O         73.1680   80.3890   56.2590 O.2   226  THR226     -0.2866
     66  CB        70.1400   80.7370   56.2360 C.3   226  THR226      0.1770
     67  OG1       68.9440   80.7720   57.0190 O.3   226  THR226     -0.2211
     68  CG2       69.7670   80.6490   54.7570 C.3   226  THR226      0.0375
     69  N         63.1180   72.8950   48.1950 N.3   274  LYS274     -0.1245
     70  CA        62.8900   73.3470   49.5660 C.3   274  LYS274      0.1561
     71  C         62.2120   72.3040   50.4590 C.2   274  LYS274      0.2260
     72  O         62.6990   71.9890   51.5410 O.2   274  LYS274     -0.2867
     73  CB        62.0550   74.6300   49.5530 C.3   274  LYS274      0.0271
     74  CG        61.9930   75.3480   50.8900 C.3   274  LYS274      0.0035
     75  CD        61.1680   76.6160   50.7880 C.3   274  LYS274      0.0206
     76  CE        61.1450   77.3670   52.1030 C.3   274  LYS274      0.1093
     77  NZ        60.1130   78.4460   52.1110 N.3   274  LYS274     -0.1314
     78  N         69.5300   78.7530   46.0890 N.3   298  TRP298     -0.1227
     79  CA        69.7770   79.9360   46.9000 C.3   298  TRP298      0.1737
     80  C         70.2240   79.6430   48.3350 C.2   298  TRP298      0.2595
     81  O         70.8920   80.4680   48.9630 O.2   298  TRP298     -0.2718
     82  CB        68.5370   80.8310   46.9000 C.3   298  TRP298      0.0564
     83  CG        68.8590   82.2630   47.1680 C.ar  298  TRP298      0.0003
     84  CD1       68.7400   82.9260   48.3570 C.ar  298  TRP298      0.0946
     85  CD2       69.4160   83.2020   46.2400 C.ar  298  TRP298      0.0152
     86  NE1       69.1910   84.2190   48.2270 N.ar  298  TRP298     -0.2442
     87  CE2       69.6130   84.4160   46.9380 C.ar  298  TRP298      0.0810
     88  CE3       69.7700   83.1360   44.8850 C.ar  298  TRP298      0.0012
     89  CZ2       70.1500   85.5570   46.3230 C.ar  298  TRP298      0.0191
     90  CZ3       70.3030   84.2670   44.2750 C.ar  298  TRP298      0.0001
     91  CH2       70.4880   85.4610   44.9950 C.ar  298  TRP298      0.0015
     92  N         69.8850   78.4640   48.8460 N.am  299  TYR299     -0.1976
     93  CA        70.2650   78.1100   50.2100 C.3   299  TYR299      0.1639
     94  C         69.7460   76.7440   50.6230 C.2   299  TYR299      0.2290
     95  O         69.0260   76.0720   49.8810 O.2   299  TYR299     -0.2864
     96  CB        69.6790   79.1370   51.1890 C.3   299  TYR299      0.0560
     97  CG        68.1600   79.2390   51.1070 C.ar  299  TYR299     -0.0198
     98  CD1       67.3390   78.1880   51.5370 C.ar  299  TYR299     -0.0009
     99  CD2       67.5460   80.3490   50.5240 C.ar  299  TYR299     -0.0009
    100  CE1       65.9500   78.2360   51.3760 C.ar  299  TYR299      0.0417
    101  CE2       66.1600   80.4090   50.3610 C.ar  299  TYR299      0.0417
    102  CZ        65.3680   79.3460   50.7830 C.ar  299  TYR299      0.1957
    103  OH        64.0020   79.3760   50.5710 O.3   299  TYR299     -0.2866
    104  N         68.8350   75.2740   54.7570 N.3   301  ALA301     -0.1245
    105  CA        68.8320   75.7670   56.1250 C.3   301  ALA301      0.1562
    106  C         68.3700   74.7030   57.0970 C.2   301  ALA301      0.2260
    107  O         67.7040   73.7340   56.7190 O.2   301  ALA301     -0.2867
    108  CB        67.9350   77.0000   56.2280 C.3   301  ALA301      0.0290
    109  N         65.9950   72.1940   55.1450 N.3   314  ILE314     -0.1245
    110  CA        65.3320   72.4850   53.8770 C.3   314  ILE314      0.1561
    111  C         66.3330   72.8210   52.7920 C.2   314  ILE314      0.2260
    112  O         67.4320   73.3060   53.0700 O.2   314  ILE314     -0.2867
    113  CB        64.3590   73.6860   53.9670 C.3   314  ILE314      0.0252
    114  CG1       65.1180   74.9470   54.4040 C.3   314  ILE314      0.0019
    115  CG2       63.2130   73.3580   54.8940 C.3   314  ILE314      0.0019
    116  CD1       64.2690   76.2110   54.4420 C.3   314  ILE314      0.0001
    117  N         64.4240   84.7790   43.4620 N.3   402  VAL402     -0.1231
    118  CA        64.3730   85.1460   44.8700 C.3   402  VAL402      0.1692
    119  C         64.1450   86.6090   45.2450 C.2   402  VAL402      0.2592
    120  O         63.3790   86.8750   46.1590 O.2   402  VAL402     -0.2718
    121  CB        65.6470   84.6610   45.5950 C.3   402  VAL402      0.0266
    122  CG1       65.4330   84.6770   47.0930 C.3   402  VAL402      0.0020
    123  CG2       66.0130   83.2760   45.1330 C.3   402  VAL402      0.0020
    124  N         64.8060   87.5550   44.5790 N.am  403  TYR403     -0.1976
    125  CA        64.6130   88.9660   44.9240 C.3   403  TYR403      0.1639
    126  C         64.1880   89.8520   43.7590 C.2   403  TYR403      0.2290
    127  O         64.6340   89.6800   42.6290 O.2   403  TYR403     -0.2864
    128  CB        65.8770   89.5500   45.5680 C.3   403  TYR403      0.0560
    129  CG        66.2430   88.9180   46.8910 C.ar  403  TYR403     -0.0198
    130  CD1       65.2630   88.6070   47.8280 C.ar  403  TYR403     -0.0009
    131  CD2       67.5700   88.6120   47.2010 C.ar  403  TYR403     -0.0009
    132  CE1       65.5890   87.9970   49.0410 C.ar  403  TYR403      0.0417
    133  CE2       67.9070   88.0040   48.4150 C.ar  403  TYR403      0.0417
    134  CZ        66.9100   87.6980   49.3240 C.ar  403  TYR403      0.1957
    135  OH        67.2270   87.0680   50.5050 O.3   403  TYR403     -0.2866
@<TRIPOS>BOND
     1   127   126    2
     2   117   118    1
     3   126   125    1
     4    90    88   ar
     5    90    91   ar
     6   124   125    1
     7   124   119   am
     8   118   119    1
     9   118   121    1
    10    88    85   ar
    11   125   128    1
    12    91    89   ar
    13   123   121    1
    14   119   120    2
    15   128   129    1
    16   121   122    1
    17    78    79    1
    18    85    87   ar
    19    85    83   ar
    20    89    87   ar
    21   129   131   ar
    22   129   130   ar
    23    79    82    1
    24    79    80    1
    25    82    83    1
    26    87    86   ar
    27    83    84   ar
    28   131   133   ar
    29   130   132   ar
    30     8     7   ar
    31    69    70    1
    32    86    84   ar
    33    80    92   am
    34    80    81    2
    35   133   134   ar
    36    92    93    1
    37     4     3    2
    38   132   134   ar
    39     7     9   ar
    40     7     6    1
    41   134   135    1
    42    51    52    2
    43    51    50    1
    44     5     6    1
    45     5     2    1
    46    73    70    1
    47    73    74    1
    48    70    71    1
    49     3     2    1
    50    95    94    2
    51    53    54    1
    52    93    94    1
    53    93    96    1
    54   101    99   ar
    55   101   102   ar
    56    50    49    1
    57     2     1    1
    58    71    72    2
    59    99    97   ar
    60   103   102    1
    61   102   100   ar
    62    75    74    1
    63    75    76    1
    64    56    55    2
    65    55    54    1
    66    97    96    1
    67    97    98   ar
    68    54    57    1
    69   100    98   ar
    70    49    40   am
    71    28    26   ar
    72    28    27   ar
    73    76    77    1
    74    26    24   ar
    75    41    40    2
    76    57    58    1
    77    27    25   ar
    78    40    39    1
    79    24    23   ar
    80   111   112    2
    81   111   110    1
    82    25    23   ar
    83    23    22    1
    84    58    59    1
    85    22    19    1
    86   110   113    1
    87   110   109    1
    88   113   114    1
    89   113   115    1
    90    39    38    1
    91    39    42    1
    92   114   116    1
    93    60    59   ar
    94    38    31   am
    95    68    66    1
    96   104   105    1
    97    59    61   ar
    98    42    43    1
    99    32    31    2
   100    19    20    1
   101    19    18    1
   102    31    30    1
   103    29    20   am
   104    29    30    1
   105    20    21    2
   106    30    33    1
   107    64    65    2
   108    64    63    1
   109   105   108    1
   110   105   106    1
   111    66    63    1
   112    66    67    1
   113    43    44    1
   114    63    62    1
   115   107   106    2
   116    44    45    1
   117    45    46    2
   118    33    34    1
   119    16    15    2
   120    48    46    1
   121    46    47    1
   122    36    35    2
   123    34    35    1
   124    17    15   am
   125    35    37   am
   126    15    14    1
   127    12    11    1
   128    12    13    2
   129    14    11    1
   130    11    10    1
