@<TRIPOS>MOLECULE
tmp/1f9vA01.pdb
 99 93 0 0 0
SMALL
GASTEIGER

@<TRIPOS>ATOM
      1  N          1.6320  -15.1050   12.1850 N.3     2  ASN2       -0.1240
      2  CA         0.2420  -14.9260   12.5950 C.3     2  ASN2        0.1653
      3  C         -0.2400  -13.5530   12.1490 C.2     2  ASN2        0.2266
      4  O         -0.1070  -12.5630   12.8720 O.2     2  ASN2       -0.2867
      5  CB         0.1310  -15.0520   14.1060 C.3     2  ASN2        0.1155
      6  CG        -1.2890  -15.2580   14.5620 C.2     2  ASN2        0.2627
      7  OD1       -2.2160  -14.6600   14.0190 O.2     2  ASN2       -0.2716
      8  ND2       -1.4730  -16.1100   15.5630 N.am    2  ASN2       -0.0877
      9  N         -3.4470  -11.2110   10.1330 N.3     4  ARG4       -0.1245
     10  CA        -4.8450  -11.1100    9.7350 C.3     4  ARG4        0.1563
     11  C         -5.0660   -9.7390    9.1380 C.2     4  ARG4        0.2260
     12  O         -4.3610   -8.7850    9.4660 O.2     4  ARG4       -0.2867
     13  CB        -5.7620  -11.3190   10.9260 C.3     4  ARG4        0.0307
     14  CG        -5.5750  -12.6760   11.5340 C.3     4  ARG4        0.0489
     15  CD        -6.8710  -13.4140   11.6740 C.3     4  ARG4        0.2205
     16  NE        -6.8340  -14.3840   12.7690 N.pl3   4  ARG4       -0.0865
     17  CZ        -5.8630  -15.2690   12.9780 C.cat   4  ARG4        0.5346
     18  NH1       -4.8110  -15.3310   12.1690 N.pl3   4  ARG4        0.1354
     19  NH2       -5.9530  -16.1050   14.0060 N.pl3   4  ARG4        0.1354
     20  N         -8.1240   -6.8350    8.1550 N.3     6  TYR6       -0.1241
     21  CA        -9.4980   -6.3390    8.2720 C.3     6  TYR6        0.1605
     22  C         -9.6220   -5.1170    7.3730 C.2     6  TYR6        0.2264
     23  O         -8.6730   -4.3380    7.2290 O.2     6  TYR6       -0.2867
     24  CB        -9.8280   -5.8690    9.6920 C.3     6  TYR6        0.0534
     25  CG        -9.8980   -6.9290   10.7640 C.ar    6  TYR6       -0.0201
     26  CD1       -9.8670   -8.2890   10.4570 C.ar    6  TYR6       -0.0009
     27  CD2      -10.0020   -6.5590   12.1030 C.ar    6  TYR6       -0.0009
     28  CE1       -9.9420   -9.2530   11.4670 C.ar    6  TYR6        0.0417
     29  CE2      -10.0760   -7.5080   13.1110 C.ar    6  TYR6        0.0417
     30  CZ       -10.0430   -8.8460   12.7930 C.ar    6  TYR6        0.1957
     31  OH       -10.1070   -9.7730   13.8120 O.3     6  TYR6       -0.2866
     32  N        -13.8070   -7.2060   17.9660 N.3    70  GLU70      -0.1231
     33  CA       -12.9190   -8.1690   17.3360 C.3    70  GLU70       0.1699
     34  C        -11.4860   -7.9420   17.8250 C.2    70  GLU70       0.2592
     35  O        -10.7980   -8.8820   18.2190 O.2    70  GLU70      -0.2718
     36  CB       -12.9740   -8.0250   15.8120 C.3    70  GLU70       0.0402
     37  CG       -14.3780   -8.0920   15.2200 C.3    70  GLU70       0.1161
     38  CD       -15.1400   -9.3310   15.6610 C.2    70  GLU70       0.3649
     39  OE1      -16.3260   -9.1970   16.0340 O.co2  70  GLU70      -0.2457
     40  OE2      -14.5550  -10.4360   15.6390 O.co2  70  GLU70      -0.2457
     41  N        -11.0580   -6.6850   17.8290 N.am   71  VAL71      -0.1980
     42  CA        -9.7030   -6.3250   18.2330 C.3    71  VAL71       0.1595
     43  C         -9.3220   -6.6500   19.6750 C.2    71  VAL71       0.2287
     44  O         -8.1620   -6.9340   19.9600 O.2    71  VAL71      -0.2864
     45  CB        -9.4530   -4.8270   17.9690 C.3    71  VAL71       0.0276
     46  CG1       -7.9820   -4.4740   18.2290 C.3    71  VAL71       0.0022
     47  CG2       -9.8350   -4.4950   16.5310 C.3    71  VAL71       0.0022
     48  N         -9.7710   -9.2630   21.4930 N.3    73  GLN73      -0.1231
     49  CA        -9.2450  -10.6160   21.6270 C.3    73  GLN73       0.1698
     50  C         -7.7790  -10.6950   21.2050 C.2    73  GLN73       0.2592
     51  O         -7.0280  -11.5400   21.6860 O.2    73  GLN73      -0.2718
     52  CB       -10.0940  -11.5840   20.7890 C.3    73  GLN73       0.0381
     53  CG       -11.5010  -11.0600   20.5030 C.3    73  GLN73       0.0905
     54  CD       -12.4890  -12.1570   20.1360 C.2    73  GLN73       0.2608
     55  OE1      -12.1310  -13.3310   20.0380 O.2    73  GLN73      -0.2717
     56  NE2      -13.7470  -11.7720   19.9300 N.am   73  GLN73      -0.0878
     57  N         -7.3730   -9.8070   20.3080 N.am   74  LEU74      -0.1980
     58  CA        -5.9950   -9.7940   19.8460 C.3    74  LEU74       0.1596
     59  C         -5.0800   -9.1090   20.8620 C.2    74  LEU74       0.2287
     60  O         -4.0910   -9.6900   21.3070 O.2    74  LEU74      -0.2864
     61  CB        -5.8930   -9.0640   18.5010 C.3    74  LEU74       0.0297
     62  CG        -4.5030   -8.5420   18.1240 C.3    74  LEU74       0.0022
     63  CD1       -3.5810   -9.7140   17.8370 C.3    74  LEU74       0.0001
     64  CD2       -4.6090   -7.6390   16.9110 C.3    74  LEU74       0.0001
     65  N          1.6660  -11.4850   16.8390 N.3   280  LYS280     -0.1231
     66  CA         0.4090  -11.4330   16.0940 C.3   280  LYS280      0.1693
     67  C          0.2650  -10.0700   15.4470 C.2   280  LYS280      0.2593
     68  O          0.3940   -9.0440   16.1070 O.2   280  LYS280     -0.2718
     69  CB        -0.7650  -11.6950   17.0310 C.3   280  LYS280      0.0285
     70  CG        -0.6720  -13.0310   17.7320 C.3   280  LYS280      0.0035
     71  CD        -1.8000  -13.2070   18.7300 C.3   280  LYS280      0.0206
     72  CE        -1.7430  -14.5740   19.3760 C.3   280  LYS280      0.1093
     73  NZ        -3.0740  -15.2440   19.3140 N.3   280  LYS280     -0.1314
     74  N         -0.0040  -10.0660   14.1470 N.am  281  THR281     -0.1939
     75  CA        -0.1390   -8.8200   13.4150 C.3   281  THR281      0.2028
     76  C         -1.5010   -8.6740   12.7590 C.2   281  THR281      0.2642
     77  O         -2.0400   -9.6330   12.2150 O.2   281  THR281     -0.2714
     78  CB         0.9460   -8.7210   12.3280 C.3   281  THR281      0.1808
     79  OG1        2.2260   -8.6060   12.9620 O.3   281  THR281     -0.2208
     80  CG2        0.7100   -7.5100   11.4290 C.3   281  THR281      0.0379
     81  N         -2.0420   -7.4630   12.8270 N.am  282  LEU282     -0.1977
     82  CA        -3.3270   -7.1580   12.2170 C.3   282  LEU282      0.1596
     83  C         -3.1620   -5.9430   11.3140 C.2   282  LEU282      0.2287
     84  O         -2.7360   -4.8790   11.7640 O.2   282  LEU282     -0.2864
     85  CB        -4.3830   -6.8530   13.2870 C.3   282  LEU282      0.0297
     86  CG        -5.6690   -6.1850   12.7760 C.3   282  LEU282      0.0022
     87  CD1       -6.3810   -7.1160   11.7970 C.3   282  LEU282      0.0001
     88  CD2       -6.5770   -5.8460   13.9560 C.3   282  LEU282      0.0001
     89  N         -2.7990  -18.1130    4.9050 N.3   311  ARG311     -0.1245
     90  CA        -3.7640  -18.7420    5.7840 C.3   311  ARG311      0.1563
     91  C         -5.1190  -18.5670    5.0850 C.2   311  ARG311      0.2260
     92  O         -6.0210  -19.3950    5.2100 O.2   311  ARG311     -0.2867
     93  CB        -3.7710  -18.0140    7.1300 C.3   311  ARG311      0.0307
     94  CG        -5.0480  -18.1560    7.9310 C.3   311  ARG311      0.0489
     95  CD        -4.7920  -17.8900    9.4100 C.3   311  ARG311      0.2205
     96  NE        -6.0340  -17.6930   10.1530 N.pl3 311  ARG311     -0.0865
     97  CZ        -6.9400  -16.7670    9.8540 C.cat 311  ARG311      0.5346
     98  NH1       -8.0410  -16.6610   10.5850 N.pl3 311  ARG311      0.1354
     99  NH2       -6.7440  -15.9480    8.8240 N.pl3 311  ARG311      0.1354
@<TRIPOS>BOND
     1    89    90    1
     2    91    92    2
     3    91    90    1
     4    90    93    1
     5    93    94    1
     6    23    22    2
     7    22    21    1
     8    94    95    1
     9    20    21    1
    10    21    24    1
    11    99    97    1
    12    11    12    2
    13    11    10    1
    14    95    96    1
    15    24    25    1
    16    10     9    1
    17    10    13    1
    18    97    96    2
    19    97    98    1
    20    26    25   ar
    21    26    28   ar
    22    25    27   ar
    23    13    14    1
    24    83    84    2
    25    83    82    1
    26    80    78    1
    27    28    30   ar
    28    14    15    1
    29    15    16    1
    30    87    86    1
    31    27    29   ar
    32     3     2    1
    33     3     4    2
    34    18    17    1
    35     1     2    1
    36    77    76    2
    37    82    81    1
    38    82    85    1
    39    78    79    1
    40    78    75    1
    41     2     5    1
    42    76    81   am
    43    76    75    1
    44    16    17    2
    45    86    85    1
    46    86    88    1
    47    30    29   ar
    48    30    31    1
    49    17    19    1
    50    75    74    1
    51     7     6    2
    52     5     6    1
    53    74    67   am
    54     6     8   am
    55    37    38    1
    56    37    36    1
    57    67    66    1
    58    67    68    2
    59    40    38   ar
    60    38    39   ar
    61    36    33    1
    62    66    65    1
    63    66    69    1
    64    47    45    1
    65    64    62    1
    66    69    70    1
    67    33    34    1
    68    33    32    1
    69    70    71    1
    70    34    41   am
    71    34    35    2
    72    41    42    1
    73    63    62    1
    74    45    46    1
    75    45    42    1
    76    62    61    1
    77    42    43    1
    78    61    58    1
    79    71    72    1
    80    73    72    1
    81    43    44    2
    82    58    57    1
    83    58    59    1
    84    56    54   am
    85    55    54    2
    86    54    53    1
    87    57    50   am
    88    53    52    1
    89    52    49    1
    90    59    60    2
    91    50    49    1
    92    50    51    2
    93    48    49    1
