@<TRIPOS>MOLECULE
tmp/1fa0A02.pdb
 85 76 0 0 0
SMALL
GASTEIGER

@<TRIPOS>ATOM
      1  N         77.2900   41.7190   66.4570 N.3    86  GLY86      -0.1210
      2  CA        78.0050   40.8380   65.5690 C.3    86  GLY86       0.1956
      3  C         78.0500   41.3970   64.1690 C.2    86  GLY86       0.2612
      4  O         77.9330   42.6000   63.9510 O.2    86  GLY86      -0.2717
      5  N         78.2140   40.5070   63.2070 N.am   87  SER87      -0.1952
      6  CA        78.3110   40.8970   61.8140 C.3    87  SER87       0.1924
      7  C         77.1070   41.6440   61.2660 C.2    87  SER87       0.2314
      8  O         77.2590   42.6560   60.5900 O.2    87  SER87      -0.2863
      9  CB        78.5670   39.6640   60.9620 C.3    87  SER87       0.2116
     10  OG        78.5180   40.0170   59.5960 O.3    87  SER87      -0.2180
     11  N         76.7030   45.3960   62.5740 N.3    90  LEU90      -0.1245
     12  CA        77.5920   46.3710   61.9550 C.3    90  LEU90       0.1561
     13  C         77.2660   46.6210   60.4830 C.2    90  LEU90       0.2260
     14  O         77.6990   47.6210   59.9190 O.2    90  LEU90      -0.2867
     15  CB        79.0460   45.9180   62.0960 C.3    90  LEU90       0.0270
     16  CG        79.5710   45.8040   63.5310 C.3    90  LEU90       0.0019
     17  CD1       81.0270   45.4200   63.4840 C.3    90  LEU90       0.0001
     18  CD2       79.4010   47.1210   64.2760 C.3    90  LEU90       0.0001
     19  N         77.9750   44.4120   57.9110 N.3    92  VAL92      -0.1245
     20  CA        79.0860   43.8900   57.1250 C.3    92  VAL92       0.1561
     21  C         78.9610   42.3730   57.0980 C.2    92  VAL92       0.2260
     22  O         79.9450   41.6480   56.9870 O.2    92  VAL92      -0.2867
     23  CB        80.4730   44.2980   57.7300 C.3    92  VAL92       0.0252
     24  CG1       80.5630   45.8120   57.8420 C.3    92  VAL92       0.0019
     25  CG2       80.6880   43.6380   59.0940 C.3    92  VAL92       0.0019
     26  N         79.3150   46.8890   69.8940 N.3   192  THR192     -0.1218
     27  CA        79.0630   47.1730   68.4790 C.3   192  THR192      0.1862
     28  C         78.2390   48.4540   68.3600 C.2   192  THR192      0.2287
     29  O         78.3350   49.1890   67.3830 O.2   192  THR192     -0.2866
     30  CB        78.2970   46.0280   67.7620 C.3   192  THR192      0.1770
     31  OG1       77.2430   45.5660   68.6010 O.3   192  THR192     -0.2211
     32  CG2       79.2130   44.8710   67.4380 C.3   192  THR192      0.0375
     33  N         80.7920   51.3950   68.5730 N.3   195  ILE195     -0.1245
     34  CA        81.6690   51.4860   67.4110 C.3   195  ILE195      0.1561
     35  C         81.0040   52.3600   66.3570 C.2   195  ILE195      0.2260
     36  O         81.5550   53.3630   65.9250 O.2   195  ILE195     -0.2867
     37  CB        81.9550   50.0940   66.8000 C.3   195  ILE195      0.0252
     38  CG1       82.8990   49.3060   67.7140 C.3   195  ILE195      0.0019
     39  CG2       82.5850   50.2420   65.4210 C.3   195  ILE195      0.0019
     40  CD1       83.1260   47.8810   67.2590 C.3   195  ILE195      0.0001
     41  N         85.5670   47.8040   56.2820 N.3   209  LEU209     -0.1245
     42  CA        85.5910   46.6420   57.1750 C.3   209  LEU209      0.1561
     43  C         85.4230   45.3550   56.3730 C.2   209  LEU209      0.2260
     44  O         86.0500   44.3400   56.6780 O.2   209  LEU209     -0.2867
     45  CB        84.4800   46.7200   58.2440 C.3   209  LEU209      0.0270
     46  CG        84.8650   46.2660   59.6680 C.3   209  LEU209      0.0019
     47  CD1       83.6180   46.0000   60.5030 C.3   209  LEU209      0.0001
     48  CD2       85.7120   45.0200   59.6140 C.3   209  LEU209      0.0001
     49  N         88.0270   42.4750   56.5080 N.3   213  LYS213     -0.1245
     50  CA        87.5970   41.1310   56.8820 C.3   213  LYS213      0.1561
     51  C         88.0480   40.1220   55.8310 C.2   213  LYS213      0.2260
     52  O         88.6210   39.0790   56.1590 O.2   213  LYS213     -0.2867
     53  CB        86.0760   41.0780   57.0350 C.3   213  LYS213      0.0271
     54  CG        85.5700   41.6100   58.3790 C.3   213  LYS213      0.0035
     55  CD        84.0450   41.7160   58.4530 C.3   213  LYS213      0.0206
     56  CE        83.3840   40.3500   58.5130 C.3   213  LYS213      0.1093
     57  NZ        83.9380   39.5150   59.6240 N.3   213  LYS213     -0.1314
     58  N         93.0950   36.2050   60.7750 N.3   222  TYR222     -0.1241
     59  CA        91.7670   36.4640   61.3240 C.3   222  TYR222      0.1605
     60  C         91.2880   35.2710   62.1570 C.2   222  TYR222      0.2264
     61  O         90.3900   34.5350   61.7480 O.2   222  TYR222     -0.2867
     62  CB        90.7600   36.7360   60.1930 C.3   222  TYR222      0.0534
     63  CG        89.3610   37.1580   60.6310 C.ar  222  TYR222     -0.0201
     64  CD1       88.8060   38.3570   60.1950 C.ar  222  TYR222     -0.0009
     65  CD2       88.5720   36.3370   61.4340 C.ar  222  TYR222     -0.0009
     66  CE1       87.4940   38.7210   60.5510 C.ar  222  TYR222      0.0417
     67  CE2       87.2690   36.6880   61.7840 C.ar  222  TYR222      0.0417
     68  CZ        86.7410   37.8770   61.3410 C.ar  222  TYR222      0.1957
     69  OH        85.4530   38.2070   61.6850 O.3   222  TYR222     -0.2866
     70  N         86.9850   39.3090   64.9330 N.3   231  GLY231     -0.1210
     71  CA        86.1320   40.2760   64.2650 C.3   231  GLY231      0.1956
     72  C         85.9920   41.6120   64.9840 C.2   231  GLY231      0.2611
     73  O         86.1290   42.6700   64.3680 O.2   231  GLY231     -0.2717
     74  N         85.7180   41.5920   66.2800 N.am  232  VAL232     -0.1979
     75  CA        85.5750   42.8570   66.9940 C.3   232  VAL232      0.1595
     76  C         86.8940   43.6340   66.9380 C.2   232  VAL232      0.2287
     77  O         86.9020   44.8550   66.7430 O.2   232  VAL232     -0.2864
     78  CB        85.1660   42.6430   68.4770 C.3   232  VAL232      0.0276
     79  CG1       84.8230   43.9710   69.1090 C.3   232  VAL232      0.0022
     80  CG2       83.9650   41.7030   68.5610 C.3   232  VAL232      0.0022
     81  N         87.3740   45.2570   63.6500 N.3   235  ALA235     -0.1245
     82  CA        86.4350   46.3590   63.5070 C.3   235  ALA235      0.1562
     83  C         86.9170   47.6200   64.2260 C.2   235  ALA235      0.2260
     84  O         86.9710   48.6860   63.6210 O.2   235  ALA235     -0.2867
     85  CB        85.0500   45.9420   64.0180 C.3   235  ALA235      0.0290
@<TRIPOS>BOND
     1    51    52    2
     2    51    50    1
     3    41    42    1
     4    43    44    2
     5    43    42    1
     6    49    50    1
     7    50    53    1
     8    22    21    2
     9    53    54    1
    10    21    20    1
    11    20    23    1
    12    20    19    1
    13    42    45    1
    14    23    24    1
    15    23    25    1
    16    45    46    1
    17    54    55    1
    18    55    56    1
    19    56    57    1
    20    10     9    1
    21    48    46    1
    22    46    47    1
    23    14    13    2
    24    62    63    1
    25    62    59    1
    26    64    66   ar
    27    64    63   ar
    28    13    12    1
    29    66    68   ar
    30     8     7    2
    31    63    65   ar
    32    58    59    1
    33     9     6    1
    34     7     6    1
    35    59    60    1
    36    68    69    1
    37    68    67   ar
    38    65    67   ar
    39    61    60    2
    40     6     5    1
    41    12    15    1
    42    12    11    1
    43    15    16    1
    44     5     3   am
    45    17    16    1
    46    82    81    1
    47    82    85    1
    48    82    83    1
    49    16    18    1
    50    84    83    2
    51     4     3    2
    52     3     2    1
    53    71    70    1
    54    71    72    1
    55    73    72    2
    56    72    74   am
    57    39    37    1
    58     2     1    1
    59    36    35    2
    60    74    75    1
    61    35    34    1
    62    77    76    2
    63    37    34    1
    64    37    38    1
    65    76    75    1
    66    75    78    1
    67    40    38    1
    68    29    28    2
    69    34    33    1
    70    32    30    1
    71    30    27    1
    72    30    31    1
    73    28    27    1
    74    78    80    1
    75    78    79    1
    76    27    26    1
