@<TRIPOS>MOLECULE
tmp/1fa0B01.pdb
 99 91 0 0 0
SMALL
GASTEIGER

@<TRIPOS>ATOM
      1  N         44.5830   68.6290   94.9420 N.3    86  TYR86      -0.1241
      2  CA        43.2990   68.9650   94.3530 C.3    86  TYR86       0.1605
      3  C         42.6490   69.9330   95.3380 C.2    86  TYR86       0.2264
      4  O         43.2910   70.3800   96.2880 O.2    86  TYR86      -0.2867
      5  CB        42.4340   67.7130   94.1520 C.3    86  TYR86       0.0534
      6  CG        42.2830   66.8330   95.3640 C.ar   86  TYR86      -0.0201
      7  CD1       41.0600   66.7170   96.0260 C.ar   86  TYR86      -0.0009
      8  CD2       43.3600   66.1010   95.8410 C.ar   86  TYR86      -0.0009
      9  CE1       40.9210   65.8860   97.1350 C.ar   86  TYR86       0.0417
     10  CE2       43.2370   65.2710   96.9480 C.ar   86  TYR86       0.0417
     11  CZ        42.0200   65.1640   97.5900 C.ar   86  TYR86       0.1957
     12  OH        41.9270   64.3220   98.6810 O.3    86  TYR86      -0.2866
     13  N         42.7490   74.0940  104.1790 N.3    99  ASP99      -0.1239
     14  CA        43.7700   73.0500  104.2130 C.3    99  ASP99       0.1674
     15  C         44.3400   72.7570  102.8240 C.2    99  ASP99       0.2266
     16  O         44.0620   73.4640  101.8490 O.2    99  ASP99      -0.2867
     17  CB        43.1610   71.7600  104.7760 C.3    99  ASP99       0.1410
     18  CG        42.0780   71.1640  103.8580 C.2    99  ASP99       0.3668
     19  OD1       41.4970   70.1160  104.2070 O.co2  99  ASP99      -0.2456
     20  OD2       41.8060   71.7350  102.7800 O.co2  99  ASP99      -0.2456
     21  N         44.3770   69.5420  100.3650 N.3   101  ASP101     -0.1239
     22  CA        43.9150   68.1720  100.1110 C.3   101  ASP101      0.1674
     23  C         44.9940   67.5280   99.2460 C.2   101  ASP101      0.2266
     24  O         45.3350   68.0510   98.1910 O.2   101  ASP101     -0.2867
     25  CB        42.5620   68.1980   99.4000 C.3   101  ASP101      0.1410
     26  CG        41.5410   69.0570  100.1360 C.2   101  ASP101      0.3668
     27  OD1       41.2340   70.1660   99.6410 O.co2 101  ASP101     -0.2456
     28  OD2       41.0600   68.6340  101.2140 O.co2 101  ASP101     -0.2456
     29  N         34.4220   57.0440  102.5400 N.3   139  PHE139     -0.1227
     30  CA        34.0590   57.0670  101.1150 C.3   139  PHE139      0.1736
     31  C         35.3400   56.7100  100.3620 C.2   139  PHE139      0.2595
     32  O         35.3420   55.8950   99.4360 O.2   139  PHE139     -0.2718
     33  CB        33.5860   58.4690  100.7020 C.3   139  PHE139      0.0547
     34  CG        33.0060   58.5460   99.3010 C.ar  139  PHE139     -0.0202
     35  CD1       33.1140   59.7250   98.5520 C.ar  139  PHE139     -0.0042
     36  CD2       32.3290   57.4610   98.7410 C.ar  139  PHE139     -0.0042
     37  CE1       32.5560   59.8230   97.2670 C.ar  139  PHE139     -0.0003
     38  CE2       31.7670   57.5500   97.4560 C.ar  139  PHE139     -0.0003
     39  CZ        31.8820   58.7360   96.7190 C.ar  139  PHE139     -0.0000
     40  N         36.4300   57.3370  100.7930 N.am  140  VAL140     -0.1980
     41  CA        37.7570   57.0970  100.2440 C.3   140  VAL140      0.1595
     42  C         38.7110   57.1810  101.4350 C.2   140  VAL140      0.2287
     43  O         38.7990   58.2180  102.1020 O.2   140  VAL140     -0.2864
     44  CB        38.1460   58.1560   99.1710 C.3   140  VAL140      0.0276
     45  CG1       38.0850   59.5530   99.7550 C.3   140  VAL140      0.0022
     46  CG2       39.5410   57.8610   98.6390 C.3   140  VAL140      0.0022
     47  N         41.4420   57.7620  104.2160 N.3   142  ILE142     -0.1245
     48  CA        42.1290   59.0270  104.4000 C.3   142  ILE142      0.1561
     49  C         42.8440   59.1590  105.7480 C.2   142  ILE142      0.2260
     50  O         42.4880   58.5050  106.7240 O.2   142  ILE142     -0.2867
     51  CB        41.1190   60.1840  104.2300 C.3   142  ILE142      0.0252
     52  CG1       41.8470   61.5260  104.1450 C.3   142  ILE142      0.0019
     53  CG2       40.1290   60.1640  105.3750 C.3   142  ILE142      0.0019
     54  CD1       40.9460   62.6840  103.7830 C.3   142  ILE142      0.0001
     55  N         43.8610   62.2760  108.0780 N.3   144  LYS144     -0.1245
     56  CA        43.8060   63.7080  108.3380 C.3   144  LYS144      0.1561
     57  C         44.8930   64.0690  109.3350 C.2   144  LYS144      0.2260
     58  O         45.0480   63.3930  110.3450 O.2   144  LYS144     -0.2867
     59  CB        42.4280   64.0810  108.8900 C.3   144  LYS144      0.0271
     60  CG        41.2850   63.6090  108.0090 C.3   144  LYS144      0.0035
     61  CD        39.9220   64.0320  108.5450 C.3   144  LYS144      0.0206
     62  CE        39.7230   65.5410  108.4440 C.3   144  LYS144      0.1093
     63  NZ        39.7050   66.0280  107.0310 N.3   144  LYS144     -0.1314
     64  N         44.9390   66.9510  104.1720 N.3   153  ASP153     -0.1239
     65  CA        44.1000   65.7810  103.8990 C.3   153  ASP153      0.1674
     66  C         44.9350   64.8690  102.9880 C.2   153  ASP153      0.2266
     67  O         45.3750   65.3020  101.9290 O.2   153  ASP153     -0.2867
     68  CB        42.8170   66.1800  103.1550 C.3   153  ASP153      0.1410
     69  CG        41.6950   66.6060  104.0890 C.2   153  ASP153      0.3668
     70  OD1       41.5640   65.9910  105.1670 O.co2 153  ASP153     -0.2456
     71  OD2       40.9290   67.5340  103.7390 O.co2 153  ASP153     -0.2456
     72  N         45.0090   61.2960  100.8140 N.3   155  ILE155     -0.1245
     73  CA        44.4050   60.0700  100.2800 C.3   155  ILE155      0.1561
     74  C         45.4190   59.3430   99.4130 C.2   155  ILE155      0.2260
     75  O         46.3640   59.9450   98.9160 O.2   155  ILE155     -0.2867
     76  CB        43.1220   60.3210   99.4640 C.3   155  ILE155      0.0252
     77  CG1       43.3810   61.2900   98.3180 C.3   155  ILE155      0.0019
     78  CG2       42.0420   60.8260  100.3800 C.3   155  ILE155      0.0019
     79  CD1       42.1750   61.4350   97.4090 C.3   155  ILE155      0.0001
     80  N         38.0760   56.9820   92.6540 N.3   185  ARG185     -0.1231
     81  CA        37.6090   58.1730   93.3520 C.3   185  ARG185      0.1694
     82  C         38.8080   59.0000   93.7970 C.2   185  ARG185      0.2591
     83  O         38.8420   60.2230   93.6160 O.2   185  ARG185     -0.2718
     84  CB        36.7810   57.8070   94.5920 C.3   185  ARG185      0.0321
     85  CG        35.4570   57.1060   94.3060 C.3   185  ARG185      0.0489
     86  CD        34.5850   57.0250   95.5640 C.3   185  ARG185      0.2205
     87  NE        33.3890   56.2050   95.3620 N.pl3 185  ARG185     -0.0865
     88  CZ        33.3180   54.8980   95.6180 C.cat 185  ARG185      0.5346
     89  NH1       34.3760   54.2460   96.0940 N.pl3 185  ARG185      0.1354
     90  NH2       32.1840   54.2410   95.3970 N.pl3 185  ARG185      0.1354
     91  N         39.7850   58.3230   94.3890 N.am  186  ALA186     -0.1980
     92  CA        40.9880   58.9850   94.8640 C.3   186  ALA186      0.1597
     93  C         41.6000   59.8260   93.7580 C.2   186  ALA186      0.2287
     94  O         41.9790   60.9680   93.9600 O.2   186  ALA186     -0.2864
     95  CB        41.9830   57.9540   95.3330 C.3   186  ALA186      0.0319
     96  N         39.6440   63.4810   91.8630 N.3   189  GLY189     -0.1225
     97  CA        39.8200   64.8300   92.3800 C.3   189  GLY189      0.1811
     98  C         40.8170   65.6530   91.5870 C.2   189  GLY189      0.2280
     99  O         40.4730   66.6910   91.0120 O.2   189  GLY189     -0.2866
@<TRIPOS>BOND
     1    99    98    2
     2    98    97    1
     3    96    97    1
     4    80    81    1
     5    81    82    1
     6    81    84    1
     7    83    82    2
     8    93    94    2
     9    93    92    1
    10    82    91   am
    11     5     2    1
    12     5     6    1
    13    85    84    1
    14    85    86    1
    15     2     1    1
    16     2     3    1
    17    91    92    1
    18    92    95    1
    19     3     4    2
    20    87    86    1
    21    87    88    2
    22     6     8   ar
    23     6     7   ar
    24    90    88    1
    25    88    89    1
    26     8    10   ar
    27     7     9   ar
    28    39    37   ar
    29    39    38   ar
    30    10    11   ar
    31     9    11   ar
    32    37    35   ar
    33    79    77    1
    34    38    36   ar
    35    11    12    1
    36    24    23    2
    37    77    76    1
    38    35    34   ar
    39    46    44    1
    40    36    34   ar
    41    75    74    2
    42    44    45    1
    43    44    41    1
    44    23    22    1
    45    34    33    1
    46    25    22    1
    47    25    26    1
    48    74    73    1
    49    32    31    2
    50    76    73    1
    51    76    78    1
    52    27    26   ar
    53    22    21    1
    54    26    28   ar
    55    41    40    1
    56    41    42    1
    57    73    72    1
    58    31    40   am
    59    31    30    1
    60    33    30    1
    61    30    29    1
    62    42    43    2
    63    16    15    2
    64    67    66    2
    65    20    18   ar
    66    15    14    1
    67    66    65    1
    68    68    65    1
    69    68    69    1
    70    71    69   ar
    71    54    52    1
    72    18    19   ar
    73    18    17    1
    74    65    64    1
    75    69    70   ar
    76    52    51    1
    77    13    14    1
    78    14    17    1
    79    47    48    1
    80    51    48    1
    81    51    53    1
    82    48    49    1
    83    49    50    2
    84    63    62    1
    85    60    61    1
    86    60    59    1
    87    55    56    1
    88    56    59    1
    89    56    57    1
    90    62    61    1
    91    57    58    2
