@<TRIPOS>MOLECULE
tmp/1fa2A00.pdb
 148 142 0 0 0
SMALL
GASTEIGER

@<TRIPOS>ATOM
      1  N         59.7590  104.2630   19.3980 N.3   185  ALA185     -0.1245
      2  CA        60.4240  103.0830   18.8720 C.3   185  ALA185      0.1562
      3  C         59.9900  101.8780   19.7050 C.2   185  ALA185      0.2260
      4  O         60.5930  100.8070   19.6280 O.2   185  ALA185     -0.2867
      5  CB        61.9440  103.2680   18.9370 C.3   185  ALA185      0.0290
      6  N         60.0610  101.7130   23.0370 N.3   187  GLU187     -0.1245
      7  CA        60.9440  101.5230   24.1850 C.3   187  GLU187      0.1567
      8  C         60.6100  102.3340   25.4380 C.2   187  GLU187      0.2260
      9  O         60.3000  103.5170   25.3530 O.2   187  GLU187     -0.2867
     10  CB        62.3690  101.8380   23.7560 C.3   187  GLU187      0.0388
     11  CG        62.7690  101.1550   22.4620 C.3   187  GLU187      0.1160
     12  CD        64.1300  101.5950   21.9790 C.2   187  GLU187      0.3649
     13  OE1       64.3700  102.8170   21.9270 O.co2 187  GLU187     -0.2457
     14  OE2       64.9580  100.7230   21.6480 O.co2 187  GLU187     -0.2457
     15  N         61.2480  104.6120   27.5990 N.3   189  ARG189     -0.1245
     16  CA        62.1950  105.7200   27.7140 C.3   189  ARG189      0.1563
     17  C         61.4810  106.9980   27.3170 C.2   189  ARG189      0.2260
     18  O         60.3260  106.9650   26.8780 O.2   189  ARG189     -0.2867
     19  CB        63.3730  105.5020   26.7520 C.3   189  ARG189      0.0307
     20  CG        62.9310  104.9640   25.3810 C.3   189  ARG189      0.0489
     21  CD        63.9700  105.1350   24.2780 C.3   189  ARG189      0.2205
     22  NE        64.0400  106.5210   23.8370 N.pl3 189  ARG189     -0.0865
     23  CZ        64.0900  106.9220   22.5680 C.cat 189  ARG189      0.5346
     24  NH1       64.0790  106.0480   21.5690 N.pl3 189  ARG189      0.1354
     25  NH2       64.1390  108.2170   22.3000 N.pl3 189  ARG189      0.1354
     26  N         66.3640  112.0080   22.4570 N.3   193  TYR193     -0.1241
     27  CA        67.2950  112.2810   21.3700 C.3   193  TYR193      0.1605
     28  C         66.5420  112.1980   20.0340 C.2   193  TYR193      0.2264
     29  O         66.8350  111.3640   19.1820 O.2   193  TYR193     -0.2867
     30  CB        68.4990  111.3200   21.4390 C.3   193  TYR193      0.0534
     31  CG        68.1610  109.8670   21.6590 C.ar  193  TYR193     -0.0201
     32  CD1       68.1210  108.9830   20.5870 C.ar  193  TYR193     -0.0009
     33  CD2       67.8720  109.3710   22.9380 C.ar  193  TYR193     -0.0009
     34  CE1       67.8020  107.6420   20.7700 C.ar  193  TYR193      0.0417
     35  CE2       67.5510  108.0200   23.1360 C.ar  193  TYR193      0.0417
     36  CZ        67.5190  107.1620   22.0390 C.ar  193  TYR193      0.1957
     37  OH        67.2160  105.8280   22.1880 O.3   193  TYR193     -0.2866
     38  N         65.6300  112.8330   16.4140 N.3   195  GLU195     -0.1245
     39  CA        66.3310  113.2470   15.2130 C.3   195  GLU195      0.1567
     40  C         65.5110  114.3160   14.4820 C.2   195  GLU195      0.2260
     41  O         66.0570  115.1160   13.7210 O.2   195  GLU195     -0.2867
     42  CB        66.5830  112.0320   14.3160 C.3   195  GLU195      0.0388
     43  CG        67.5260  112.2850   13.1570 C.3   195  GLU195      0.1160
     44  CD        67.8250  111.0200   12.3600 C.2   195  GLU195      0.3649
     45  OE1       68.4820  111.1200   11.2970 O.co2 195  GLU195     -0.2457
     46  OE2       67.4090  109.9240   12.7920 O.co2 195  GLU195     -0.2457
     47  N         68.7110  116.4570   16.6800 N.3   199  TRP199     -0.1241
     48  CA        69.6850  115.6790   17.4350 C.3   199  TRP199      0.1605
     49  C         70.6180  114.8690   16.5420 C.2   199  TRP199      0.2264
     50  O         70.1830  114.2480   15.5670 O.2   199  TRP199     -0.2867
     51  CB        68.9920  114.7110   18.3860 C.3   199  TRP199      0.0550
     52  CG        69.9780  113.8510   19.1400 C.ar  199  TRP199      0.0003
     53  CD1       70.6180  114.1650   20.3060 C.ar  199  TRP199      0.0946
     54  CD2       70.4580  112.5530   18.7560 C.ar  199  TRP199      0.0152
     55  NE1       71.4610  113.1460   20.6710 N.ar  199  TRP199     -0.2442
     56  CE2       71.3850  112.1450   19.7400 C.ar  199  TRP199      0.0810
     57  CE3       70.1960  111.6990   17.6740 C.ar  199  TRP199      0.0012
     58  CZ2       72.0520  110.9160   19.6780 C.ar  199  TRP199      0.0191
     59  CZ3       70.8600  110.4770   17.6090 C.ar  199  TRP199      0.0001
     60  CH2       71.7770  110.0960   18.6080 C.ar  199  TRP199      0.0015
     61  N         74.1180  112.2260   17.0850 N.3   201  PHE201     -0.1241
     62  CA        75.0340  111.5400   17.9810 C.3   201  PHE201      0.1605
     63  C         76.3000  112.4020   18.0780 C.2   201  PHE201      0.2264
     64  O         76.7710  112.9220   17.0620 O.2   201  PHE201     -0.2867
     65  CB        75.3590  110.1670   17.3870 C.3   201  PHE201      0.0534
     66  CG        76.2450  109.3150   18.2470 C.ar  201  PHE201     -0.0203
     67  CD1       75.7700  108.7750   19.4440 C.ar  201  PHE201     -0.0042
     68  CD2       77.5500  109.0360   17.8540 C.ar  201  PHE201     -0.0042
     69  CE1       76.5770  107.9700   20.2300 C.ar  201  PHE201     -0.0003
     70  CE2       78.3640  108.2350   18.6310 C.ar  201  PHE201     -0.0003
     71  CZ        77.8780  107.6980   19.8230 C.ar  201  PHE201     -0.0000
     72  N         66.0170  100.7200   25.7930 N.3   299  SER299     -0.1202
     73  CA        67.0710  101.0990   24.8630 C.3   299  SER299      0.2020
     74  C         68.4640  101.1870   25.4970 C.2   299  SER299      0.2619
     75  O         68.6170  101.4820   26.6890 O.2   299  SER299     -0.2717
     76  CB        66.7280  102.4380   24.2420 C.3   299  SER299      0.2103
     77  OG        66.3720  103.3480   25.2630 O.3   299  SER299     -0.2182
     78  N         69.4820  100.9290   24.6860 N.am  300  GLY300     -0.1956
     79  CA        70.8470  101.0070   25.1720 C.3   300  GLY300      0.1869
     80  C         71.4240  102.3810   24.8880 C.2   300  GLY300      0.2309
     81  O         71.6460  102.7240   23.7290 O.2   300  GLY300     -0.2863
     82  N         74.5640  104.1360   25.5200 N.3   302  HIS302     -0.1226
     83  CA        75.9640  104.0180   25.8790 C.3   302  HIS302      0.1752
     84  C         76.8040  105.2890   25.8390 C.2   302  HIS302      0.2596
     85  O         77.8430  105.3560   26.4990 O.2   302  HIS302     -0.2718
     86  CB        76.6040  102.9980   24.9680 C.3   302  HIS302      0.0759
     87  CG        76.4460  103.3310   23.5180 C.ar  302  HIS302      0.0818
     88  ND1       75.2960  103.0490   22.8200 N.ar  302  HIS302     -0.2268
     89  CD2       77.2650  103.9740   22.6580 C.ar  302  HIS302      0.1154
     90  CE1       75.4110  103.5070   21.5860 C.ar  302  HIS302      0.1986
     91  NE2       76.5990  104.0750   21.4620 N.ar  302  HIS302     -0.2212
     92  N         76.3990  106.2900   25.0660 N.am  303  TRP303     -0.1976
     93  CA        77.2130  107.4940   25.0330 C.3   303  TRP303      0.1640
     94  C         77.1550  108.2690   26.3590 C.2   303  TRP303      0.2290
     95  O         76.1010  108.4010   26.9780 O.2   303  TRP303     -0.2864
     96  CB        76.8600  108.3850   23.8150 C.3   303  TRP303      0.0576
     97  CG        75.4230  108.7000   23.6050 C.ar  303  TRP303      0.0006
     98  CD1       74.8140  109.9090   23.7900 C.ar  303  TRP303      0.0946
     99  CD2       74.4110  107.8130   23.1160 C.ar  303  TRP303      0.0152
    100  NE1       73.4890  109.8310   23.4470 N.ar  303  TRP303     -0.2442
    101  CE2       73.2130  108.5570   23.0280 C.ar  303  TRP303      0.0810
    102  CE3       74.3980  106.4620   22.7420 C.ar  303  TRP303      0.0012
    103  CZ2       72.0080  107.9920   22.5790 C.ar  303  TRP303      0.0191
    104  CZ3       73.1940  105.8990   22.2970 C.ar  303  TRP303      0.0001
    105  CH2       72.0190  106.6650   22.2200 C.ar  303  TRP303      0.0015
    106  N         67.7000   96.5240   23.5900 N.3   344  THR344     -0.1203
    107  CA        67.8980   96.7990   22.1640 C.3   344  THR344      0.1994
    108  C         69.2750   97.2740   21.6540 C.2   344  THR344      0.2618
    109  O         69.3580   98.0860   20.7170 O.2   344  THR344     -0.2717
    110  CB        66.8370   97.8230   21.7070 C.3   344  THR344      0.1784
    111  OG1       66.7170   98.8290   22.7220 O.3   344  THR344     -0.2211
    112  CG2       65.4830   97.1640   21.5020 C.3   344  THR344      0.0376
    113  N         70.3470   96.7350   22.2220 N.am  345  CYS345     -0.1969
    114  CA        71.6760   97.1230   21.7790 C.3   345  CYS345      0.1712
    115  C         72.7090   96.1830   22.3620 C.2   345  CYS345      0.2296
    116  O         72.9670   96.2160   23.5660 O.2   345  CYS345     -0.2864
    117  CB        71.9630   98.5590   22.2470 C.3   345  CYS345      0.0983
    118  SG        73.5510   99.2420   21.7350 S.3   345  CYS345     -0.0798
    119  N         77.5060   96.0360   19.4420 N.3   348  MET348     -0.1245
    120  CA        78.5490   97.0470   19.5000 C.3   348  MET348      0.1570
    121  C         79.7190   96.7500   20.4290 C.2   348  MET348      0.2261
    122  O         79.5760   96.0570   21.4320 O.2   348  MET348     -0.2867
    123  CB        77.9410   98.3860   19.9050 C.3   348  MET348      0.0387
    124  CG        76.7380   98.7870   19.0960 C.3   348  MET348      0.0595
    125  SD        76.0710  100.3580   19.6190 S.3   348  MET348     -0.1393
    126  CE        76.8740  101.4200   18.4670 C.3   348  MET348      0.0692
    127  N         83.3140  103.0670   18.7690 N.3   353  GLN353     -0.1245
    128  CA        82.7100  104.3370   19.1140 C.3   353  GLN353      0.1566
    129  C         83.7630  105.4120   19.2540 C.2   353  GLN353      0.2260
    130  O         84.8290  105.1710   19.8030 O.2   353  GLN353     -0.2867
    131  CB        81.9330  104.2020   20.4260 C.3   353  GLN353      0.0367
    132  CG        80.4580  104.5400   20.3110 C.3   353  GLN353      0.0905
    133  CD        79.6730  103.5190   19.5030 C.2   353  GLN353      0.2608
    134  OE1       78.6300  103.8410   18.9300 O.2   353  GLN353     -0.2717
    135  NE2       80.1610  102.2790   19.4660 N.am  353  GLN353     -0.0878
    136  N         71.4980   97.0410   17.3620 N.3   384  ALA384     -0.1231
    137  CA        71.0090   98.4040   17.1590 C.3   384  ALA384      0.1694
    138  C         71.1120   98.9050   15.7250 C.2   384  ALA384      0.2591
    139  O         70.2020   99.5560   15.2120 O.2   384  ALA384     -0.2718
    140  CB        71.7470   99.3670   18.1060 C.3   384  ALA384      0.0304
    141  N         72.2320   98.6180   15.0800 N.am  385  LEU385     -0.1980
    142  CA        72.4170   99.0460   13.7050 C.3   385  LEU385      0.1596
    143  C         72.5770   97.7880   12.8640 C.2   385  LEU385      0.2287
    144  O         72.9960   96.7570   13.3740 O.2   385  LEU385     -0.2864
    145  CB        73.6580   99.9350   13.6000 C.3   385  LEU385      0.0297
    146  CG        73.6890  101.1350   14.5530 C.3   385  LEU385      0.0022
    147  CD1       75.0210  101.8680   14.4550 C.3   385  LEU385      0.0001
    148  CD2       72.5500  102.0590   14.2100 C.3   385  LEU385      0.0001
@<TRIPOS>BOND
     1    45    44   ar
     2    44    46   ar
     3    44    43    1
     4   143   144    2
     5   143   142    1
     6    43    42    1
     7   145   142    1
     8   145   146    1
     9   142   141    1
    10    41    40    2
    11   148   146    1
    12    42    39    1
    13   147   146    1
    14    40    39    1
    15   141   138   am
    16   139   138    2
    17    39    38    1
    18    50    49    2
    19   138   137    1
    20    49    48    1
    21    47    48    1
    22    64    63    2
    23    61    62    1
    24   137   136    1
    25   137   140    1
    26    65    62    1
    27    65    66    1
    28    48    51    1
    29    59    57   ar
    30    59    60   ar
    31    57    54   ar
    32    68    66   ar
    33    68    70   ar
    34    62    63    1
    35    66    67   ar
    36    51    52    1
    37   126   125    1
    38    60    58   ar
    39    70    71   ar
    40    54    52   ar
    41    54    56   ar
    42   127   128    1
    43     2     5    1
    44     2     1    1
    45     2     3    1
    46   134   133    2
    47   124   125    1
    48   124   123    1
    49   128   129    1
    50   128   131    1
    51    52    53   ar
    52    29    28    2
    53   129   130    2
    54   119   120    1
    55    67    69   ar
    56   135   133   am
    57   120   123    1
    58   120   121    1
    59   133   132    1
    60     4     3    2
    61    58    56   ar
    62    56    55   ar
    63    71    69   ar
    64    28    27    1
    65    53    55   ar
    66   132   131    1
    67   121   122    2
    68    32    34   ar
    69    32    31   ar
    70   109   108    2
    71    34    36   ar
    72    27    30    1
    73    27    26    1
    74    30    31    1
    75    91    90   ar
    76    91    89   ar
    77   112   110    1
    78    24    23    1
    79    90    88   ar
    80    14    12   ar
    81   108   107    1
    82   108   113   am
    83    31    33   ar
    84   110   107    1
    85   110   111    1
    86   118   117    1
    87   114   113    1
    88   114   117    1
    89   114   115    1
    90    13    12   ar
    91    12    11    1
    92    36    37    1
    93    36    35   ar
    94   107   106    1
    95   105   104   ar
    96   105   103   ar
    97   104   102   ar
    98    25    23    1
    99   115   116    2
   100    11    10    1
   101    23    22    2
   102   103   101   ar
   103    89    87   ar
   104   102    99   ar
   105    88    87   ar
   106    33    35   ar
   107   101    99   ar
   108   101   100   ar
   109     6     7    1
   110    99    97   ar
   111   100    98   ar
   112    87    86    1
   113    97    98   ar
   114    97    96    1
   115    81    80    2
   116    10     7    1
   117    96    93    1
   118    22    21    1
   119     7     8    1
   120    76    73    1
   121    76    77    1
   122    21    20    1
   123    78    79    1
   124    78    74   am
   125    73    74    1
   126    73    72    1
   127    80    79    1
   128    86    83    1
   129    93    92    1
   130    93    94    1
   131    92    84   am
   132     9     8    2
   133    20    19    1
   134    74    75    2
   135    82    83    1
   136    84    83    1
   137    84    85    2
   138    94    95    2
   139    19    16    1
   140    18    17    2
   141    17    16    1
   142    15    16    1
