@<TRIPOS>MOLECULE
tmp/1fa2A01.pdb
 103 94 0 0 0
SMALL
GASTEIGER

@<TRIPOS>ATOM
      1  N         63.6630   90.3400   12.0160 N.3    18  MET18      -0.1245
      2  CA        62.6280   91.3540   11.8800 C.3    18  MET18       0.1570
      3  C         62.2410   91.4630   10.4120 C.2    18  MET18       0.2261
      4  O         63.1030   91.4280    9.5360 O.2    18  MET18      -0.2867
      5  CB        63.1260   92.7050   12.3890 C.3    18  MET18       0.0387
      6  CG        63.3060   92.7660   13.8910 C.3    18  MET18       0.0595
      7  SD        63.8500   94.4050   14.4020 S.3    18  MET18      -0.1393
      8  CE        65.0790   94.0050   15.6600 C.3    18  MET18       0.0692
      9  N         60.0860   96.9010    7.1510 N.3    21  LEU21      -0.1245
     10  CA        59.2310   97.8880    7.8070 C.3    21  LEU21       0.1561
     11  C         57.7690   98.0160    7.4370 C.2    21  LEU21       0.2260
     12  O         56.9110   98.0270    8.3230 O.2    21  LEU21      -0.2867
     13  CB        59.8780   99.2790    7.7650 C.3    21  LEU21       0.0270
     14  CG        60.7580   99.5410    8.9980 C.3    21  LEU21       0.0019
     15  CD1       61.2420  100.9760    9.0000 C.3    21  LEU21       0.0001
     16  CD2       59.9610   99.2480   10.2730 C.3    21  LEU21       0.0001
     17  N         55.9430   94.5020   13.5710 N.3    54  ASP54      -0.1239
     18  CA        55.2670   95.6140   14.2290 C.3    54  ASP54       0.1674
     19  C         53.7630   95.6190   13.9420 C.2    54  ASP54       0.2266
     20  O         53.3470   95.7360   12.7870 O.2    54  ASP54      -0.2867
     21  CB        55.8360   96.9440   13.7270 C.3    54  ASP54       0.1410
     22  CG        57.2750   97.1570   14.1200 C.2    54  ASP54       0.3668
     23  OD1       57.5090   97.5920   15.2730 O.co2  54  ASP54      -0.2456
     24  OD2       58.1670   96.8900   13.2770 O.co2  54  ASP54      -0.2456
     25  N         51.3360   97.8640   14.0250 N.3    56  TRP56      -0.1241
     26  CA        51.1160   99.3060   14.1450 C.3    56  TRP56       0.1605
     27  C         49.7330   99.7620   14.5800 C.2    56  TRP56       0.2264
     28  O         48.7200   99.4070   13.9810 O.2    56  TRP56      -0.2867
     29  CB        51.4990  100.0120   12.8350 C.3    56  TRP56       0.0550
     30  CG        52.9180   99.7540   12.4200 C.ar   56  TRP56       0.0003
     31  CD1       53.3440   98.9040   11.4430 C.ar   56  TRP56       0.0946
     32  CD2       54.1000  100.3290   13.0000 C.ar   56  TRP56       0.0152
     33  NE1       54.7210   98.9160   11.3770 N.ar   56  TRP56      -0.2442
     34  CE2       55.2080   99.7810   12.3210 C.ar   56  TRP56       0.0810
     35  CE3       54.3270  101.2530   14.0320 C.ar   56  TRP56       0.0012
     36  CZ2       56.5300  100.1260   12.6400 C.ar   56  TRP56       0.0191
     37  CZ3       55.6430  101.5960   14.3520 C.ar   56  TRP56       0.0001
     38  CH2       56.7270  101.0340   13.6560 C.ar   56  TRP56       0.0015
     39  N         54.9540   93.0280   18.1860 N.3    90  ILE90      -0.1245
     40  CA        55.2310   94.2300   18.9540 C.3    90  ILE90       0.1561
     41  C         53.9400   95.0340   18.9620 C.2    90  ILE90       0.2260
     42  O         53.3620   95.2800   17.8980 O.2    90  ILE90      -0.2867
     43  CB        56.3150   95.1070   18.2860 C.3    90  ILE90       0.0252
     44  CG1       57.5480   94.2760   17.9460 C.3    90  ILE90       0.0019
     45  CG2       56.7170   96.2400   19.2190 C.3    90  ILE90       0.0019
     46  CD1       58.6030   95.0650   17.1670 C.3    90  ILE90       0.0001
     47  N         53.3190  103.4910   18.7370 N.3    94  HIS94      -0.1241
     48  CA        54.1440  104.6190   18.3170 C.3    94  HIS94       0.1621
     49  C         54.1280  104.8280   16.8050 C.2    94  HIS94       0.2264
     50  O         53.5090  104.0620   16.0660 O.2    94  HIS94      -0.2867
     51  CB        55.5940  104.4320   18.8040 C.3    94  HIS94       0.0745
     52  CG        56.2580  103.1930   18.2930 C.ar   94  HIS94       0.0817
     53  ND1       55.8750  101.9220   18.6720 N.ar   94  HIS94      -0.2268
     54  CD2       57.3020  103.0280   17.4390 C.ar   94  HIS94       0.1154
     55  CE1       56.6480  101.0360   18.0760 C.ar   94  HIS94       0.1986
     56  NE2       57.5220  101.6770   17.3240 N.ar   94  HIS94      -0.2212
     57  N         56.1700  105.3050   13.1250 N.3    96  CYS96      -0.1235
     58  CA        57.3580  104.7880   12.4550 C.3    96  CYS96       0.1677
     59  C         57.8780  105.8620   11.5000 C.2    96  CYS96       0.2270
     60  O         57.4950  105.9030   10.3270 O.2    96  CYS96      -0.2867
     61  CB        57.0450  103.5210   11.6680 C.3    96  CYS96       0.0956
     62  SG        58.5220  102.8130   10.8900 S.3    96  CYS96      -0.0801
     63  N         59.7590  104.2630   19.3980 N.3   185  ALA185     -0.1245
     64  CA        60.4240  103.0830   18.8720 C.3   185  ALA185      0.1562
     65  C         59.9900  101.8780   19.7050 C.2   185  ALA185      0.2260
     66  O         60.5930  100.8070   19.6280 O.2   185  ALA185     -0.2867
     67  CB        61.9440  103.2680   18.9370 C.3   185  ALA185      0.0290
     68  N         60.7910   96.8440   26.1080 N.3   297  LYS297     -0.1245
     69  CA        62.0970   97.1000   25.5240 C.3   297  LYS297      0.1561
     70  C         62.7500   98.2760   26.2250 C.2   297  LYS297      0.2260
     71  O         62.1090   99.3040   26.4520 O.2   297  LYS297     -0.2867
     72  CB        61.9690   97.4180   24.0290 C.3   297  LYS297      0.0271
     73  CG        61.3420   96.3160   23.2000 C.3   297  LYS297      0.0035
     74  CD        61.5340   96.5880   21.7080 C.3   297  LYS297      0.0206
     75  CE        60.8790   95.5140   20.8290 C.3   297  LYS297      0.1093
     76  NZ        61.4590   95.4700   19.4430 N.3   297  LYS297     -0.1314
     77  N         67.7000   96.5240   23.5900 N.3   344  THR344     -0.1218
     78  CA        67.8980   96.7990   22.1640 C.3   344  THR344      0.1862
     79  C         69.2750   97.2740   21.6540 C.2   344  THR344      0.2287
     80  O         69.3580   98.0860   20.7170 O.2   344  THR344     -0.2866
     81  CB        66.8370   97.8230   21.7070 C.3   344  THR344      0.1770
     82  OG1       66.7170   98.8290   22.7220 O.3   344  THR344     -0.2211
     83  CG2       65.4830   97.1640   21.5020 C.3   344  THR344      0.0375
     84  N         68.5410   92.4850   21.0050 N.3   382  GLU382     -0.1245
     85  CA        68.6940   92.6450   19.5620 C.3   382  GLU382      0.1567
     86  C         69.8370   93.6120   19.2540 C.2   382  GLU382      0.2260
     87  O         70.3850   94.2360   20.1680 O.2   382  GLU382     -0.2867
     88  CB        67.3840   93.1540   18.9510 C.3   382  GLU382      0.0388
     89  CG        66.6910   94.2380   19.7510 C.3   382  GLU382      0.1160
     90  CD        65.2300   94.4110   19.3540 C.2   382  GLU382      0.3649
     91  OE1       64.8870   95.4000   18.6720 O.co2 382  GLU382     -0.2457
     92  OE2       64.4140   93.5430   19.7260 O.co2 382  GLU382     -0.2457
     93  N         66.9740   93.3330   10.8080 N.3   422  ARG422     -0.1245
     94  CA        65.9130   93.3520    9.8070 C.3   422  ARG422      0.1563
     95  C         66.2440   92.6190    8.5110 C.2   422  ARG422      0.2260
     96  O         67.3380   92.7510    7.9590 O.2   422  ARG422     -0.2867
     97  CB        65.5620   94.8040    9.4880 C.3   422  ARG422      0.0307
     98  CG        64.1740   95.0200    8.9320 C.3   422  ARG422      0.0489
     99  CD        63.9290   96.5010    8.6730 C.3   422  ARG422      0.2205
    100  NE        64.0000   97.2940    9.8970 N.pl3 422  ARG422     -0.0865
    101  CZ        63.1430   97.1930   10.9100 C.cat 422  ARG422      0.5346
    102  NH1       62.1370   96.3310   10.8550 N.pl3 422  ARG422      0.1354
    103  NH2       63.2920   97.9590   11.9830 N.pl3 422  ARG422      0.1354
@<TRIPOS>BOND
     1     9    10    1
     2    11    10    1
     3    11    12    2
     4    13    10    1
     5    13    14    1
     6    96    95    2
     7    95    94    1
     8    99    98    1
     9    99   100    1
    10    98    97    1
    11    14    15    1
    12    14    16    1
    13    97    94    1
    14     4     3    2
    15    94    93    1
    16   100   101    2
    17    60    59    2
    18     3     2    1
    19   102   101    1
    20    62    61    1
    21   101   103    1
    22    33    31   ar
    23    33    34   ar
    24    31    30   ar
    25    59    58    1
    26    61    58    1
    27     2     1    1
    28     2     5    1
    29    34    36   ar
    30    34    32   ar
    31     5     6    1
    32    30    29    1
    33    30    32   ar
    34    58    57    1
    35    36    38   ar
    36    20    19    2
    37    29    26    1
    38    32    35   ar
    39    24    22   ar
    40    17    18    1
    41    38    37   ar
    42    21    22    1
    43    21    18    1
    44     6     7    1
    45    19    18    1
    46    28    27    2
    47    25    26    1
    48    35    37   ar
    49    22    23   ar
    50    26    27    1
    51     7     8    1
    52    50    49    2
    53    49    48    1
    54    46    44    1
    55    56    54   ar
    56    56    55   ar
    57    54    52   ar
    58    42    41    2
    59    44    43    1
    60    55    53   ar
    61    39    40    1
    62    43    40    1
    63    43    45    1
    64    52    53   ar
    65    52    51    1
    66    48    47    1
    67    48    51    1
    68    91    90   ar
    69    64    67    1
    70    64    63    1
    71    64    65    1
    72    88    85    1
    73    88    89    1
    74    40    41    1
    75    86    85    1
    76    86    87    2
    77    90    92   ar
    78    90    89    1
    79    76    75    1
    80    85    84    1
    81    66    65    2
    82    80    79    2
    83    75    74    1
    84    83    81    1
    85    79    78    1
    86    81    78    1
    87    81    82    1
    88    74    73    1
    89    78    77    1
    90    73    72    1
    91    72    69    1
    92    69    68    1
    93    69    70    1
    94    70    71    2
