@<TRIPOS>MOLECULE
tmp/1fa9A01.pdb
 115 111 0 0 0
SMALL
GASTEIGER

@<TRIPOS>ATOM
      1  N         32.8590   47.2760   48.5830 N.3    62  TRP62      -0.1227
      2  CA        34.1100   47.9670   48.2980 C.3    62  TRP62       0.1737
      3  C         35.2680   47.0360   48.6720 C.2    62  TRP62       0.2595
      4  O         36.2580   46.9280   47.9500 O.2    62  TRP62      -0.2718
      5  CB        34.1630   49.2740   49.1010 C.3    62  TRP62       0.0564
      6  CG        35.4470   50.0120   48.9750 C.ar   62  TRP62       0.0003
      7  CD1       35.7880   50.9140   48.0130 C.ar   62  TRP62       0.0946
      8  CD2       36.5800   49.9020   49.8450 C.ar   62  TRP62       0.0152
      9  NE1       37.0660   51.3760   48.2250 N.ar   62  TRP62      -0.2442
     10  CE2       37.5780   50.7680   49.3420 C.ar   62  TRP62       0.0810
     11  CE3       36.8510   49.1480   51.0010 C.ar   62  TRP62       0.0012
     12  CZ2       38.8330   50.9040   49.9550 C.ar   62  TRP62       0.0191
     13  CZ3       38.1020   49.2830   51.6110 C.ar   62  TRP62       0.0001
     14  CH2       39.0750   50.1560   51.0820 C.ar   62  TRP62       0.0015
     15  N         35.1210   46.3540   49.8030 N.am   63  ILE63      -0.1980
     16  CA        36.1210   45.4130   50.2850 C.3    63  ILE63       0.1595
     17  C         36.2590   44.2890   49.2600 C.2    63  ILE63       0.2287
     18  O         37.3680   43.9620   48.8510 O.2    63  ILE63      -0.2864
     19  CB        35.7320   44.8840   51.7090 C.3    63  ILE63       0.0276
     20  CG1       36.0340   45.9680   52.7580 C.3    63  ILE63       0.0022
     21  CG2       36.4620   43.5820   52.0530 C.3    63  ILE63       0.0022
     22  CD1       35.4230   45.7070   54.1240 C.3    63  ILE63       0.0001
     23  N         37.8530   45.7030   45.8290 N.3    66  GLN66      -0.1231
     24  CA        39.2910   45.9100   45.9840 C.3    66  GLN66       0.1698
     25  C         40.0980   44.6200   46.1710 C.2    66  GLN66       0.2592
     26  O         41.2630   44.5520   45.7510 O.2    66  GLN66      -0.2718
     27  CB        39.5670   46.8970   47.1170 C.3    66  GLN66       0.0381
     28  CG        38.7850   48.1940   47.0080 C.3    66  GLN66       0.0905
     29  CD        39.0270   48.9430   45.6990 C.2    66  GLN66       0.2608
     30  OE1       40.1690   49.1320   45.2710 O.2    66  GLN66      -0.2717
     31  NE2       37.9460   49.3880   45.0690 N.am   66  GLN66      -0.0878
     32  N         39.4890   43.6060   46.7910 N.am   67  GLN67      -0.1979
     33  CA        40.1430   42.3060   46.9800 C.3    67  GLN67       0.1601
     34  C         40.2750   41.6140   45.6100 C.2    67  GLN67       0.2287
     35  O         41.2480   40.9060   45.3500 O.2    67  GLN67      -0.2864
     36  CB        39.3390   41.4210   47.9420 C.3    67  GLN67       0.0394
     37  CG        39.3710   41.9020   49.3880 C.3    67  GLN67       0.0908
     38  CD        38.6180   41.0070   50.3760 C.2    67  GLN67       0.2608
     39  OE1       38.9020   41.0310   51.5770 O.2    67  GLN67      -0.2717
     40  NE2       37.6520   40.2400   49.8860 N.am   67  GLN67      -0.0878
     41  N         43.0300   43.2170   43.5600 N.3    70  TYR70      -0.1241
     42  CA        44.3410   42.7710   43.9920 C.3    70  TYR70       0.1605
     43  C         44.6280   41.3920   43.4110 C.2    70  TYR70       0.2264
     44  O         45.7430   41.1060   42.9690 O.2    70  TYR70      -0.2867
     45  CB        44.4390   42.7420   45.5160 C.3    70  TYR70       0.0534
     46  CG        45.8540   42.5440   45.9950 C.ar   70  TYR70      -0.0201
     47  CD1       46.6910   43.6350   46.2140 C.ar   70  TYR70      -0.0009
     48  CD2       46.3750   41.2630   46.1740 C.ar   70  TYR70      -0.0009
     49  CE1       48.0060   43.4560   46.5930 C.ar   70  TYR70       0.0417
     50  CE2       47.6920   41.0730   46.5530 C.ar   70  TYR70       0.0417
     51  CZ        48.5020   42.1720   46.7590 C.ar   70  TYR70       0.1957
     52  OH        49.8140   41.9820   47.1330 O.3    70  TYR70      -0.2866
     53  N         45.1950   49.9670   36.4380 N.3    76  ARG76      -0.1245
     54  CA        44.3770   50.9040   37.1880 C.3    76  ARG76       0.1563
     55  C         44.3630   52.3010   36.5950 C.2    76  ARG76       0.2260
     56  O         45.3930   52.8230   36.1540 O.2    76  ARG76      -0.2867
     57  CB        44.8310   50.9410   38.6550 C.3    76  ARG76       0.0307
     58  CG        44.7460   49.5870   39.3390 C.3    76  ARG76       0.0489
     59  CD        45.3230   49.5820   40.7420 C.3    76  ARG76       0.2205
     60  NE        45.5740   48.2110   41.1890 N.pl3  76  ARG76      -0.0865
     61  CZ        44.8380   47.5430   42.0740 C.cat  76  ARG76       0.5346
     62  NH1       43.7870   48.1080   42.6380 N.pl3  76  ARG76       0.1354
     63  NH2       45.1360   46.2880   42.3700 N.pl3  76  ARG76       0.1354
     64  N         40.1740   55.1080   40.1040 N.3   150  TYR150     -0.1241
     65  CA        40.2670   55.8970   41.3190 C.3   150  TYR150      0.1605
     66  C         40.0490   57.3700   41.0600 C.2   150  TYR150      0.2264
     67  O         40.3640   57.8800   39.9870 O.2   150  TYR150     -0.2867
     68  CB        41.6450   55.7290   41.9580 C.3   150  TYR150      0.0534
     69  CG        41.9940   54.3090   42.3160 C.ar  150  TYR150     -0.0201
     70  CD1       42.0330   53.9010   43.6440 C.ar  150  TYR150     -0.0009
     71  CD2       42.2830   53.3710   41.3230 C.ar  150  TYR150     -0.0009
     72  CE1       42.3460   52.5940   43.9780 C.ar  150  TYR150      0.0417
     73  CE2       42.5950   52.0620   41.6450 C.ar  150  TYR150      0.0417
     74  CZ        42.6210   51.6780   42.9740 C.ar  150  TYR150      0.1957
     75  OH        42.8810   50.3720   43.3010 O.3   150  TYR150     -0.2866
     76  N         37.0110   53.6210   44.6550 N.3   235  THR235     -0.1218
     77  CA        37.5080   54.5710   45.6490 C.3   235  THR235      0.1862
     78  C         37.7730   56.0000   45.1750 C.2   235  THR235      0.2287
     79  O         38.3750   56.2130   44.1330 O.2   235  THR235     -0.2866
     80  CB        38.8720   54.0500   46.2250 C.3   235  THR235      0.1770
     81  OG1       38.7000   52.7470   46.7930 O.3   235  THR235     -0.2211
     82  CG2       39.4330   54.9850   47.2780 C.3   235  THR235      0.0375
     83  N         39.6960   59.0820   46.6950 N.3   237  ARG237     -0.1245
     84  CA        40.5980   59.4450   47.7900 C.3   237  ARG237      0.1563
     85  C         41.0050   60.9230   47.7020 C.2   237  ARG237      0.2260
     86  O         41.6980   61.3430   46.7750 O.2   237  ARG237     -0.2867
     87  CB        41.8320   58.5180   47.8110 C.3   237  ARG237      0.0307
     88  CG        42.9680   58.9770   48.7330 C.3   237  ARG237      0.0489
     89  CD        44.0130   57.8780   48.9680 C.3   237  ARG237      0.2205
     90  NE        43.5200   56.8280   49.8600 N.pl3 237  ARG237     -0.0865
     91  CZ        44.2720   55.8600   50.3760 C.cat 237  ARG237      0.5346
     92  NH1       45.5570   55.7910   50.0950 N.pl3 237  ARG237      0.1354
     93  NH2       43.7440   54.9740   51.2030 N.pl3 237  ARG237      0.1354
     94  N         53.2420   53.3920   45.5830 N.3   304  ARG304     -0.1231
     95  CA        53.1130   52.4950   46.7240 C.3   304  ARG304      0.1694
     96  C         52.2620   51.2850   46.3580 C.2   304  ARG304      0.2591
     97  O         52.6810   50.1420   46.5270 O.2   304  ARG304     -0.2718
     98  CB        52.4450   53.2330   47.8870 C.3   304  ARG304      0.0321
     99  CG        52.5430   52.5220   49.2220 C.3   304  ARG304      0.0489
    100  CD        51.2910   52.7350   50.0590 C.3   304  ARG304      0.2205
    101  NE        50.3140   51.6760   49.8220 N.pl3 304  ARG304     -0.0865
    102  CZ        49.0820   51.8730   49.3660 C.cat 304  ARG304      0.5346
    103  NH1       48.6550   53.0950   49.0970 N.pl3 304  ARG304      0.1354
    104  NH2       48.2860   50.8380   49.1500 N.pl3 304  ARG304      0.1354
    105  N         51.0540   51.5430   45.8730 N.am  305  ARG305     -0.1980
    106  CA        50.1600   50.4590   45.4990 C.3   305  ARG305      0.1597
    107  C         50.7320   49.6660   44.3200 C.2   305  ARG305      0.2287
    108  O         50.5220   48.4500   44.2280 O.2   305  ARG305     -0.2864
    109  CB        48.7570   51.0040   45.1920 C.3   305  ARG305      0.0334
    110  CG        47.6990   49.9480   44.8010 C.3   305  ARG305      0.0492
    111  CD        46.2760   50.4990   44.9460 C.3   305  ARG305      0.2205
    112  NE        46.2200   51.8820   44.4950 N.pl3 305  ARG305     -0.0865
    113  CZ        46.0970   52.9350   45.2970 C.cat 305  ARG305      0.5346
    114  NH1       45.9870   52.7740   46.6080 N.pl3 305  ARG305      0.1354
    115  NH2       46.1950   54.1590   44.7920 N.pl3 305  ARG305      0.1354
@<TRIPOS>BOND
     1    56    55    2
     2    53    54    1
     3    55    54    1
     4    54    57    1
     5    57    58    1
     6    58    59    1
     7    67    66    2
     8    64    65    1
     9    59    60    1
    10    66    65    1
    11    60    61    2
    12    65    68    1
    13    71    73   ar
    14    71    69   ar
    15    73    74   ar
    16    68    69    1
    17    61    63    1
    18    61    62    1
    19    69    70   ar
    20    44    43    2
    21    74    75    1
    22    74    72   ar
    23    43    42    1
    24    41    42    1
    25    70    72   ar
    26    42    45    1
    27    79    78    2
    28   108   107    2
    29   107   106    1
    30   112   111    1
    31   112   113    2
    32    76    77    1
    33   115   113    1
    34   110   111    1
    35   110   109    1
    36    31    29   am
    37    78    77    1
    38   109   106    1
    39    30    29    2
    40   113   114    1
    41    35    34    2
    42   106   105    1
    43    45    46    1
    44    94    95    1
    45    34    33    1
    46    77    80    1
    47    29    28    1
    48    26    25    2
    49    23    24    1
    50   105    96   am
    51    24    25    1
    52    24    27    1
    53    46    48   ar
    54    46    47   ar
    55    25    32   am
    56    48    50   ar
    57    47    49   ar
    58    80    81    1
    59    80    82    1
    60    96    97    2
    61    96    95    1
    62    50    51   ar
    63    49    51   ar
    64    83    84    1
    65    95    98    1
    66    51    52    1
    67    86    85    2
    68    32    33    1
    69    33    36    1
    70    28    27    1
    71    85    84    1
    72    84    87    1
    73    87    88    1
    74    98    99    1
    75    36    37    1
    76     4     3    2
    77     7     9   ar
    78     7     6   ar
    79     9    10   ar
    80     2     1    1
    81     2     3    1
    82     2     5    1
    83     3    15   am
    84    88    89    1
    85    18    17    2
    86    89    90    1
    87     6     5    1
    88     6     8   ar
    89   103   102    1
    90   104   102    1
    91    99   100    1
    92    17    16    1
    93    10     8   ar
    94    10    12   ar
    95   102   101    2
    96    37    38    1
    97    15    16    1
    98   101   100    1
    99     8    11   ar
   100    90    91    2
   101    40    38   am
   102    12    14   ar
   103    92    91    1
   104    16    19    1
   105    91    93    1
   106    38    39    2
   107    11    13   ar
   108    14    13   ar
   109    19    21    1
   110    19    20    1
   111    20    22    1
