@<TRIPOS>MOLECULE
tmp/1fa9A00.pdb
 100 93 0 0 0
SMALL
GASTEIGER

@<TRIPOS>ATOM
      1  N         31.0240   72.3650   35.9690 N.3   130  GLY130     -0.1210
      2  CA        31.0470   71.2930   34.9850 C.3   130  GLY130      0.1956
      3  C         32.2880   70.4220   34.9580 C.2   130  GLY130      0.2611
      4  O         32.1930   69.2170   34.7270 O.2   130  GLY130     -0.2717
      5  N         33.4520   71.0310   35.1520 N.am  131  LEU131     -0.1979
      6  CA        34.7050   70.2920   35.1820 C.3   131  LEU131      0.1596
      7  C         34.6440   69.1960   36.2640 C.2   131  LEU131      0.2287
      8  O         35.0260   68.0460   36.0150 O.2   131  LEU131     -0.2864
      9  CB        35.8580   71.2480   35.4910 C.3   131  LEU131      0.0297
     10  CG        37.2410   70.6150   35.6560 C.3   131  LEU131      0.0022
     11  CD1       37.7130   70.0610   34.3280 C.3   131  LEU131      0.0001
     12  CD2       38.2270   71.6430   36.1680 C.3   131  LEU131      0.0001
     13  N         31.7960   66.4780   35.6860 N.3   134  LEU134     -0.1245
     14  CA        32.1870   65.5560   34.6280 C.3   134  LEU134      0.1561
     15  C         32.9310   64.4230   35.3340 C.2   134  LEU134      0.2260
     16  O         32.6030   63.2440   35.1740 O.2   134  LEU134     -0.2867
     17  CB        33.1000   66.2840   33.6340 C.3   134  LEU134      0.0270
     18  CG        33.1800   65.8740   32.1540 C.3   134  LEU134      0.0019
     19  CD1       34.5360   65.2590   31.8420 C.3   134  LEU134      0.0001
     20  CD2       32.0380   64.9480   31.7620 C.3   134  LEU134      0.0001
     21  N         39.7720   71.2990   28.3760 N.3   372  HIS372     -0.1241
     22  CA        38.3720   71.7010   28.5450 C.3   372  HIS372      0.1621
     23  C         38.1460   73.1120   28.0240 C.2   372  HIS372      0.2264
     24  O         37.0440   73.4590   27.5940 O.2   372  HIS372     -0.2867
     25  CB        37.9640   71.6480   30.0190 C.3   372  HIS372      0.0745
     26  CG        37.8440   70.2640   30.5610 C.ar  372  HIS372      0.0817
     27  ND1       36.6620   69.5570   30.5360 N.ar  372  HIS372     -0.2268
     28  CD2       38.7660   69.4380   31.1080 C.ar  372  HIS372      0.1154
     29  CE1       36.8600   68.3520   31.0400 C.ar  372  HIS372      0.1986
     30  NE2       38.1290   68.2540   31.3950 N.ar  372  HIS372     -0.2212
     31  N         36.6610   67.9750   24.5260 N.3   450  VAL450     -0.1245
     32  CA        35.3980   67.4670   25.0490 C.3   450  VAL450      0.1561
     33  C         34.2230   67.3820   24.0820 C.2   450  VAL450      0.2260
     34  O         33.1790   66.8250   24.4270 O.2   450  VAL450     -0.2867
     35  CB        34.9940   68.2530   26.3040 C.3   450  VAL450      0.0252
     36  CG1       36.0970   68.1380   27.3480 C.3   450  VAL450      0.0019
     37  CG2       34.7450   69.7160   25.9590 C.3   450  VAL450      0.0019
     38  N         31.9160   64.8250   25.9000 N.3   479  ASN479     -0.1240
     39  CA        31.4320   64.6430   27.2630 C.3   479  ASN479      0.1653
     40  C         30.1490   63.8300   27.3450 C.2   479  ASN479      0.2266
     41  O         29.4060   63.6800   26.3690 O.2   479  ASN479     -0.2867
     42  CB        31.2260   65.9900   27.9460 C.3   479  ASN479      0.1155
     43  CG        32.5230   66.6890   28.2440 C.2   479  ASN479      0.2627
     44  OD1       32.5370   67.8750   28.5560 O.2   479  ASN479     -0.2716
     45  ND2       33.6300   65.9560   28.1510 N.am  479  ASN479     -0.0877
     46  N         26.5840   79.0720   35.9160 N.3   564  ARG564     -0.1245
     47  CA        27.3160   80.1910   36.5000 C.3   564  ARG564      0.1563
     48  C         26.9440   81.5120   35.8530 C.2   564  ARG564      0.2260
     49  O         26.7530   81.5870   34.6420 O.2   564  ARG564     -0.2867
     50  CB        28.8260   79.9880   36.4100 C.3   564  ARG564      0.0307
     51  CG        29.4050   79.9050   35.0080 C.3   564  ARG564      0.0489
     52  CD        30.8880   80.2280   35.0760 C.3   564  ARG564      0.2205
     53  NE        31.6460   79.6630   33.9660 N.pl3 564  ARG564     -0.0865
     54  CZ        32.8870   80.0240   33.6540 C.cat 564  ARG564      0.5346
     55  NH1       33.5080   80.9510   34.3640 N.pl3 564  ARG564      0.1354
     56  NH2       33.5090   79.4620   32.6320 N.pl3 564  ARG564      0.1354
     57  N         27.6700   83.7380   29.1850 N.3   569  LYS569     -0.1245
     58  CA        26.5660   82.8000   29.4080 C.3   569  LYS569      0.1561
     59  C         25.2420   83.4810   29.1120 C.2   569  LYS569      0.2260
     60  O         24.2050   82.8260   28.9900 O.2   569  LYS569     -0.2867
     61  CB        26.5660   82.2980   30.8550 C.3   569  LYS569      0.0271
     62  CG        27.7070   81.3500   31.1960 C.3   569  LYS569      0.0035
     63  CD        27.5550   80.0270   30.4690 C.3   569  LYS569      0.0206
     64  CE        28.5770   79.0120   30.9480 C.3   569  LYS569      0.1093
     65  NZ        28.3400   77.6580   30.3760 N.3   569  LYS569     -0.1314
     66  N         31.5040   78.2970   23.8920 N.3   667  GLU667     -0.1231
     67  CA        31.1740   77.0560   24.5970 C.3   667  GLU667      0.1699
     68  C         31.7610   75.8300   23.9110 C.2   667  GLU667      0.2592
     69  O         31.4690   75.5690   22.7410 O.2   667  GLU667     -0.2718
     70  CB        29.6590   76.8770   24.6920 C.3   667  GLU667      0.0402
     71  CG        28.9420   77.9620   25.4610 C.3   667  GLU667      0.1161
     72  CD        29.2650   77.9790   26.9490 C.2   667  GLU667      0.3649
     73  OE1       29.8930   77.0280   27.4640 O.co2 667  GLU667     -0.2457
     74  OE2       28.8640   78.9550   27.6130 O.co2 667  GLU667     -0.2457
     75  N         32.5740   75.0690   24.6400 N.am  668  ALA668     -0.1966
     76  CA        33.1790   73.8640   24.0850 C.3   668  ALA668      0.1728
     77  C         32.2060   72.6830   24.1520 C.2   668  ALA668      0.2617
     78  O         32.0180   71.9640   23.1700 O.2   668  ALA668     -0.2715
     79  CB        34.4680   73.5340   24.8180 C.3   668  ALA668      0.0334
     80  N         31.5800   72.5020   25.3090 N.am  669  SER669     -0.1936
     81  CA        30.6220   71.4230   25.5180 C.3   669  SER669      0.2055
     82  C         29.3760   71.9730   26.2090 C.2   669  SER669      0.2644
     83  O         29.1160   73.1770   26.1600 O.2   669  SER669     -0.2714
     84  CB        31.2600   70.3070   26.3520 C.3   669  SER669      0.2130
     85  OG        30.3730   69.2170   26.5550 O.3   669  SER669     -0.2179
     86  N         28.6060   71.0950   26.8450 N.am  670  GLY670     -0.1939
     87  CA        27.3940   71.5170   27.5230 C.3   670  GLY670      0.2014
     88  C         26.7630   70.3500   28.2460 C.2   670  GLY670      0.2640
     89  O         25.8040   69.7310   27.7650 O.2   670  GLY670     -0.2714
     90  N         27.3190   70.0630   29.4180 N.am  671  THR671     -0.1936
     91  CA        26.8840   68.9670   30.2730 C.3   671  THR671      0.2028
     92  C         25.4550   69.1180   30.7720 C.2   671  THR671      0.2642
     93  O         24.7060   68.1520   30.7940 O.2   671  THR671     -0.2714
     94  CB        27.8750   68.7970   31.4450 C.3   671  THR671      0.1808
     95  OG1       29.0110   68.0510   30.9950 O.3   671  THR671     -0.2208
     96  CG2       27.2410   68.0890   32.6110 C.3   671  THR671      0.0379
     97  N         25.0780   70.3320   31.1550 N.am  672  GLY672     -0.1954
     98  CA        23.7300   70.5610   31.6390 C.3   672  GLY672      0.1869
     99  C         22.7040   70.3570   30.5450 C.2   672  GLY672      0.2309
    100  O         21.6280   69.7940   30.7850 O.2   672  GLY672     -0.2863
@<TRIPOS>BOND
     1    69    68    2
     2    78    77    2
     3    66    67    1
     4    68    67    1
     5    68    75   am
     6    33    34    2
     7    33    32    1
     8    76    77    1
     9    76    75    1
    10    76    79    1
    11    77    80   am
    12    31    32    1
    13    67    70    1
    14    70    71    1
    15    32    35    1
    16    80    81    1
    17    71    72    1
    18    81    82    1
    19    81    84    1
    20    38    39    1
    21    37    35    1
    22    83    82    2
    23    82    86   am
    24    35    36    1
    25    84    85    1
    26    41    40    2
    27    86    87    1
    28    72    73   ar
    29    72    74   ar
    30    39    40    1
    31    39    42    1
    32    87    88    1
    33    24    23    2
    34    89    88    2
    35    42    43    1
    36    23    22    1
    37    45    43   am
    38    43    44    2
    39    88    90   am
    40    21    22    1
    41    22    25    1
    42    60    59    2
    43    59    58    1
    44    57    58    1
    45    58    61    1
    46    90    91    1
    47    25    26    1
    48    91    92    1
    49    91    94    1
    50    65    64    1
    51    63    64    1
    52    63    62    1
    53    27    26   ar
    54    27    29   ar
    55    99   100    2
    56    99    98    1
    57    26    28   ar
    58    92    93    2
    59    92    97   am
    60    61    62    1
    61    95    94    1
    62    29    30   ar
    63    28    30   ar
    64    97    98    1
    65    94    96    1
    66    20    18    1
    67    19    18    1
    68    18    17    1
    69    56    54    1
    70    17    14    1
    71    54    53    2
    72    54    55    1
    73    53    52    1
    74    11    10    1
    75    14    15    1
    76    14    13    1
    77    49    48    2
    78     4     3    2
    79     3     2    1
    80     3     5   am
    81     2     1    1
    82    51    52    1
    83    51    50    1
    84     5     6    1
    85    16    15    2
    86     6     9    1
    87     6     7    1
    88     9    10    1
    89    10    12    1
    90    48    47    1
    91    46    47    1
    92     8     7    2
    93    50    47    1
