@<TRIPOS>MOLECULE
tmp/1fa9A02.pdb
 156 150 0 0 0
SMALL
GASTEIGER

@<TRIPOS>ATOM
      1  N         32.4770   67.3870   41.9180 N.3    85  TYR85      -0.1241
      2  CA        31.1260   67.8620   42.2320 C.3    85  TYR85       0.1605
      3  C         30.2120   66.6510   42.4550 C.2    85  TYR85       0.2264
      4  O         29.3920   66.3030   41.6050 O.2    85  TYR85      -0.2867
      5  CB        30.6250   68.7290   41.0710 C.3    85  TYR85       0.0534
      6  CG        29.8980   70.0010   41.4540 C.ar   85  TYR85      -0.0201
      7  CD1       29.8030   70.4150   42.7840 C.ar   85  TYR85      -0.0009
      8  CD2       29.3070   70.8010   40.4770 C.ar   85  TYR85      -0.0009
      9  CE1       29.1370   71.5980   43.1290 C.ar   85  TYR85       0.0417
     10  CE2       28.6400   71.9820   40.8120 C.ar   85  TYR85       0.0417
     11  CZ        28.5600   72.3730   42.1340 C.ar   85  TYR85       0.1957
     12  OH        27.9060   73.5390   42.4570 O.3    85  TYR85      -0.2866
     13  N         32.7850   72.5410   41.9580 N.3   128  ASN128     -0.1225
     14  CA        32.3300   73.9040   41.6610 C.3   128  ASN128      0.1788
     15  C         31.4800   74.0670   40.4040 C.2   128  ASN128      0.2637
     16  O         30.6470   74.9680   40.3440 O.2   128  ASN128     -0.2714
     17  CB        33.5200   74.8640   41.5930 C.3   128  ASN128      0.1169
     18  CG        33.1110   76.2820   41.2380 C.2   128  ASN128      0.2627
     19  OD1       32.1020   76.8020   41.7230 O.2   128  ASN128     -0.2716
     20  ND2       33.8950   76.9120   40.3760 N.am  128  ASN128     -0.0877
     21  N         31.6920   73.2180   39.4040 N.am  129  GLY129     -0.1718
     22  CA        30.9200   73.3320   38.1780 C.2   129  GLY129      0.1480
     23  C         30.9600   72.1160   37.2760 C.2   129  GLY129      0.2821
     24  O         30.9440   70.9800   37.7520 O.2   129  GLY129     -0.2669
     25  N         31.0240   72.3650   35.9690 N.am  130  GLY130     -0.1920
     26  CA        31.0470   71.2930   34.9850 C.3   130  GLY130      0.1872
     27  C         32.2880   70.4220   34.9580 C.2   130  GLY130      0.2310
     28  O         32.1930   69.2170   34.7270 O.2   130  GLY130     -0.2863
     29  N         31.7840   68.0740   37.8450 N.3   133  ARG133     -0.1245
     30  CA        30.6250   67.2030   37.6800 C.3   133  ARG133      0.1563
     31  C         30.9100   66.1430   36.6220 C.2   133  ARG133      0.2260
     32  O         30.3470   65.0440   36.6620 O.2   133  ARG133     -0.2867
     33  CB        29.3760   68.0040   37.3170 C.3   133  ARG133      0.0307
     34  CG        28.1120   67.1450   37.1980 C.3   133  ARG133      0.0489
     35  CD        27.8020   66.4030   38.4900 C.3   133  ARG133      0.2205
     36  NE        27.6250   64.9650   38.2750 N.pl3 133  ARG133     -0.0865
     37  CZ        27.4580   64.0750   39.2530 C.cat 133  ARG133      0.5346
     38  NH1       27.4490   64.4600   40.5250 N.pl3 133  ARG133      0.1354
     39  NH2       27.2930   62.7930   38.9630 N.pl3 133  ARG133      0.1354
     40  N         21.1640   61.1990   36.8890 N.3   486  TRP486     -0.1241
     41  CA        20.4130   62.1160   36.0480 C.3   486  TRP486      0.1605
     42  C         19.1240   61.6330   35.3770 C.2   486  TRP486      0.2264
     43  O         18.4940   62.3790   34.6150 O.2   486  TRP486     -0.2867
     44  CB        21.3680   62.7790   35.0570 C.3   486  TRP486      0.0550
     45  CG        22.5110   63.4590   35.7580 C.ar  486  TRP486      0.0003
     46  CD1       23.8260   63.1000   35.7140 C.ar  486  TRP486      0.0946
     47  CD2       22.4400   64.6320   36.5850 C.ar  486  TRP486      0.0152
     48  NE1       24.5820   63.9810   36.4510 N.ar  486  TRP486     -0.2442
     49  CE2       23.7580   64.9300   36.9980 C.ar  486  TRP486      0.0810
     50  CE3       21.3870   65.4610   37.0200 C.ar  486  TRP486      0.0012
     51  CZ2       24.0590   66.0310   37.8230 C.ar  486  TRP486      0.0191
     52  CZ3       21.6850   66.5580   37.8450 C.ar  486  TRP486      0.0001
     53  CH2       23.0120   66.8290   38.2370 C.ar  486  TRP486      0.0015
     54  N         19.9640   77.5640   34.3250 N.3   562  VAL562     -0.1231
     55  CA        20.7940   77.3790   35.5100 C.3   562  VAL562      0.1692
     56  C         22.2370   77.0610   35.1470 C.2   562  VAL562      0.2592
     57  O         22.5260   76.0640   34.4740 O.2   562  VAL562     -0.2718
     58  CB        20.2120   76.2910   36.3940 C.3   562  VAL562      0.0266
     59  CG1       18.9790   76.8220   37.1060 C.3   562  VAL562      0.0020
     60  CG2       19.8420   75.0740   35.5450 C.3   562  VAL562      0.0020
     61  N         23.1280   77.9480   35.5760 N.am  563  LYS563     -0.1966
     62  CA        24.5610   77.8490   35.3020 C.3   563  LYS563      0.1728
     63  C         25.2520   79.0630   35.9270 C.2   563  LYS563      0.2616
     64  O         24.5830   80.0040   36.3730 O.2   563  LYS563     -0.2715
     65  CB        24.8060   77.8510   33.7860 C.3   563  LYS563      0.0311
     66  CG        24.3140   79.1190   33.0740 C.3   563  LYS563      0.0038
     67  CD        24.1610   78.9100   31.5810 C.3   563  LYS563      0.0206
     68  CE        23.0280   77.9470   31.2550 C.3   563  LYS563      0.1093
     69  NZ        23.3710   76.5260   31.5350 N.3   563  LYS563     -0.1314
     70  N         26.5840   79.0720   35.9160 N.am  564  ARG564     -0.1977
     71  CA        27.3160   80.1910   36.5000 C.3   564  ARG564      0.1597
     72  C         26.9440   81.5120   35.8530 C.2   564  ARG564      0.2287
     73  O         26.7530   81.5870   34.6420 O.2   564  ARG564     -0.2864
     74  CB        28.8260   79.9880   36.4100 C.3   564  ARG564      0.0334
     75  CG        29.4050   79.9050   35.0080 C.3   564  ARG564      0.0492
     76  CD        30.8880   80.2280   35.0760 C.3   564  ARG564      0.2205
     77  NE        31.6460   79.6630   33.9660 N.pl3 564  ARG564     -0.0865
     78  CZ        32.8870   80.0240   33.6540 C.cat 564  ARG564      0.5346
     79  NH1       33.5080   80.9510   34.3640 N.pl3 564  ARG564      0.1354
     80  NH2       33.5090   79.4620   32.6320 N.pl3 564  ARG564      0.1354
     81  N         27.6700   83.7380   29.1850 N.3   569  LYS569     -0.1245
     82  CA        26.5660   82.8000   29.4080 C.3   569  LYS569      0.1561
     83  C         25.2420   83.4810   29.1120 C.2   569  LYS569      0.2260
     84  O         24.2050   82.8260   28.9900 O.2   569  LYS569     -0.2867
     85  CB        26.5660   82.2980   30.8550 C.3   569  LYS569      0.0271
     86  CG        27.7070   81.3500   31.1960 C.3   569  LYS569      0.0035
     87  CD        27.5550   80.0270   30.4690 C.3   569  LYS569      0.0206
     88  CE        28.5770   79.0120   30.9480 C.3   569  LYS569      0.1093
     89  NZ        28.3400   77.6580   30.3760 N.3   569  LYS569     -0.1314
     90  N         22.5480   77.4900   43.4310 N.3   643  TYR643     -0.1227
     91  CA        22.3170   76.4060   42.4820 C.3   643  TYR643      0.1736
     92  C         23.4640   75.4080   42.5890 C.2   643  TYR643      0.2595
     93  O         24.6320   75.7870   42.5230 O.2   643  TYR643     -0.2718
     94  CB        22.1990   76.9540   41.0530 C.3   643  TYR643      0.0548
     95  CG        22.0670   75.8660   40.0090 C.ar  643  TYR643     -0.0200
     96  CD1       20.9790   74.9890   40.0270 C.ar  643  TYR643     -0.0009
     97  CD2       23.0610   75.6740   39.0370 C.ar  643  TYR643     -0.0009
     98  CE1       20.8800   73.9430   39.1130 C.ar  643  TYR643      0.0417
     99  CE2       22.9730   74.6280   38.1220 C.ar  643  TYR643      0.0417
    100  CZ        21.8760   73.7670   38.1690 C.ar  643  TYR643      0.1957
    101  OH        21.7690   72.7350   37.2690 O.3   643  TYR643     -0.2866
    102  N         23.1240   74.1340   42.7500 N.am  644  ARG644     -0.1966
    103  CA        24.1230   73.0780   42.9000 C.3   644  ARG644      0.1729
    104  C         23.5250   71.7190   42.5240 C.2   644  ARG644      0.2616
    105  O         22.3200   71.5980   42.3140 O.2   644  ARG644     -0.2715
    106  CB        24.6220   73.0400   44.3520 C.3   644  ARG644      0.0348
    107  CG        23.5730   72.5450   45.3420 C.3   644  ARG644      0.0492
    108  CD        23.8190   73.0490   46.7530 C.3   644  ARG644      0.2205
    109  NE        22.6260   73.7320   47.2360 N.pl3 644  ARG644     -0.0865
    110  CZ        21.6670   73.1580   47.9480 C.cat 644  ARG644      0.5346
    111  NH1       21.7580   71.8810   48.2920 N.pl3 644  ARG644      0.1354
    112  NH2       20.5690   73.8390   48.2390 N.pl3 644  ARG644      0.1354
    113  N         24.3670   70.6920   42.5140 N.am  645  VAL645     -0.1977
    114  CA        23.9570   69.3420   42.1500 C.3   645  VAL645      0.1596
    115  C         22.5870   68.8800   42.6640 C.2   645  VAL645      0.2287
    116  O         21.7440   68.4650   41.8690 O.2   645  VAL645     -0.2864
    117  CB        25.0630   68.3000   42.5120 C.3   645  VAL645      0.0276
    118  CG1       24.6240   66.8770   42.1400 C.3   645  VAL645      0.0022
    119  CG2       26.3490   68.6430   41.7930 C.3   645  VAL645      0.0022
    120  N         19.8910   70.9340   41.0770 N.3   648  ALA648     -0.1245
    121  CA        19.8440   70.5840   39.6620 C.3   648  ALA648      0.1562
    122  C         18.9550   69.3630   39.4880 C.2   648  ALA648      0.2260
    123  O         18.1340   69.3020   38.5760 O.2   648  ALA648     -0.2867
    124  CB        21.2450   70.2850   39.1530 C.3   648  ALA648      0.0290
    125  N         28.6060   71.0950   26.8450 N.3   670  GLY670     -0.1210
    126  CA        27.3940   71.5170   27.5230 C.3   670  GLY670      0.1956
    127  C         26.7630   70.3500   28.2460 C.2   670  GLY670      0.2613
    128  O         25.8040   69.7310   27.7650 O.2   670  GLY670     -0.2717
    129  N         27.3190   70.0630   29.4180 N.am  671  THR671     -0.1938
    130  CA        26.8840   68.9670   30.2730 C.3   671  THR671      0.2028
    131  C         25.4550   69.1180   30.7720 C.2   671  THR671      0.2643
    132  O         24.7060   68.1520   30.7940 O.2   671  THR671     -0.2714
    133  CB        27.8750   68.7970   31.4450 C.3   671  THR671      0.1808
    134  OG1       29.0110   68.0510   30.9950 O.3   671  THR671     -0.2208
    135  CG2       27.2410   68.0890   32.6110 C.3   671  THR671      0.0379
    136  N         25.0780   70.3320   31.1550 N.am  672  GLY672     -0.1939
    137  CA        23.7300   70.5610   31.6390 C.3   672  GLY672      0.2014
    138  C         22.7040   70.3570   30.5450 C.2   672  GLY672      0.2638
    139  O         21.6280   69.7940   30.7850 O.2   672  GLY672     -0.2714
    140  N         23.0660   70.7940   29.3370 N.am  673  ASN673     -0.1972
    141  CA        22.2250   70.6960   28.1430 C.3   673  ASN673      0.1688
    142  C         21.7290   69.2620   27.9790 C.2   673  ASN673      0.2292
    143  O         20.5290   69.0130   27.8500 O.2   673  ASN673     -0.2864
    144  CB        23.0320   71.0900   26.8980 C.3   673  ASN673      0.1181
    145  CG        23.7630   72.4150   27.0530 C.2   673  ASN673      0.2629
    146  OD1       24.0500   72.8590   28.1630 O.2   673  ASN673     -0.2716
    147  ND2       24.0880   73.0400   25.9300 N.am  673  ASN673     -0.0877
    148  N         21.5550   66.9280   30.1990 N.3   675  LYS675     -0.1245
    149  CA        20.7140   66.5400   31.3380 C.3   675  LYS675      0.1561
    150  C         19.2500   66.8750   31.0930 C.2   675  LYS675      0.2260
    151  O         18.3670   66.0690   31.3870 O.2   675  LYS675     -0.2867
    152  CB        21.1860   67.2390   32.6180 C.3   675  LYS675      0.0271
    153  CG        22.5800   66.8440   33.0570 C.3   675  LYS675      0.0035
    154  CD        23.0990   67.6990   34.1950 C.3   675  LYS675      0.0206
    155  CE        24.5420   67.3110   34.4810 C.3   675  LYS675      0.1093
    156  NZ        25.0580   68.3810   35.2790 N.3   675  LYS675     -0.1314
@<TRIPOS>BOND
     1   147   145   am
     2   125   126    1
     3   144   145    1
     4   144   141    1
     5   145   146    2
     6   126   127    1
     7   128   127    2
     8   143   142    2
     9   142   141    1
    10   141   140    1
    11   127   129   am
    12    84    83    2
    13    83    82    1
    14    81    82    1
    15   140   138   am
    16    82    85    1
    17   129   130    1
    18   148   149    1
    19   130   131    1
    20   130   133    1
    21    89    88    1
    22    87    88    1
    23    87    86    1
    24   138   139    2
    25   138   137    1
    26   131   132    2
    27   131   136   am
    28    85    86    1
    29   134   133    1
    30   150   149    1
    31   150   151    2
    32   136   137    1
    33    68    69    1
    34    68    67    1
    35   149   152    1
    36   133   135    1
    37    67    66    1
    38   152   153    1
    39    80    78    1
    40   153   154    1
    41    66    65    1
    42    78    77    2
    43    78    79    1
    44    65    62    1
    45    77    76    1
    46   154   155    1
    47    54    55    1
    48    57    56    2
    49   155   156    1
    50    43    42    2
    51    73    72    2
    52    28    27    2
    53    27    26    1
    54    26    25    1
    55    75    76    1
    56    75    74    1
    57    44    45    1
    58    44    41    1
    59    56    55    1
    60    56    61   am
    61    62    61    1
    62    62    63    1
    63    42    41    1
    64    55    58    1
    65    60    58    1
    66    46    45   ar
    67    46    48   ar
    68    45    47   ar
    69    72    71    1
    70    70    63   am
    71    70    71    1
    72    63    64    2
    73    25    23   am
    74    41    40    1
    75    58    59    1
    76    74    71    1
    77    48    49   ar
    78    47    49   ar
    79    47    50   ar
    80    31    32    2
    81    31    30    1
    82    49    51   ar
    83    50    52   ar
    84    34    33    1
    85    34    35    1
    86   101   100    1
    87    23    24    2
    88    23    22    1
    89    33    30    1
    90    30    29    1
    91    51    53   ar
    92    52    53   ar
    93    99   100   ar
    94    99    97   ar
    95   100    98   ar
    96    22    21    2
    97    36    35    1
    98    36    37    2
    99   123   122    2
   100    39    37    1
   101    97    95   ar
   102    98    96   ar
   103   124   121    1
   104    37    38    1
   105    21    15    1
   106   122   121    1
   107   121   120    1
   108    95    96   ar
   109    95    94    1
   110    16    15    2
   111    20    18   am
   112    15    14    1
   113     8    10   ar
   114     8     6   ar
   115    10    11   ar
   116    94    91    1
   117     5     6    1
   118     5     2    1
   119    18    17    1
   120    18    19    2
   121     6     7   ar
   122    17    14    1
   123     4     3    2
   124    14    13    1
   125   119   117    1
   126   116   115    2
   127     1     2    1
   128    11    12    1
   129    11     9   ar
   130   118   117    1
   131   114   117    1
   132   114   113    1
   133   114   115    1
   134     2     3    1
   135   105   104    2
   136    91    92    1
   137    91    90    1
   138   113   104   am
   139    93    92    2
   140   104   103    1
   141    92   102   am
   142   102   103    1
   143     7     9   ar
   144   103   106    1
   145   106   107    1
   146   107   108    1
   147   108   109    1
   148   109   110    2
   149   110   112    1
   150   110   111    1
