@<TRIPOS>MOLECULE
tmp/1faoA00.pdb
 110 102 0 0 0
SMALL
GASTEIGER

@<TRIPOS>ATOM
      1  N         22.6820   11.4320   16.6090 N.3    12  LYS12      -0.1245
      2  CA        23.4020   10.2180   16.9520 C.3    12  LYS12       0.1561
      3  C         24.5820   10.0030   16.0310 C.2    12  LYS12       0.2260
      4  O         24.5610   10.4040   14.8700 O.2    12  LYS12      -0.2867
      5  CB        22.4680    9.0070   16.8710 C.3    12  LYS12       0.0271
      6  CG        21.7640    8.8630   15.5380 C.3    12  LYS12       0.0035
      7  CD        21.1470    7.4790   15.4010 C.3    12  LYS12       0.0206
      8  CE        22.2210    6.4480   15.1010 C.3    12  LYS12       0.1093
      9  NZ        22.8350    6.6820   13.7640 N.3    12  LYS12      -0.1314
     10  N         27.2540    7.6200   13.9200 N.3    14  GLY14      -0.1210
     11  CA        27.1600    6.3860   13.1650 C.3    14  GLY14       0.1956
     12  C         28.0740    5.3390   13.7680 C.2    14  GLY14       0.2612
     13  O         28.7960    5.6180   14.7330 O.2    14  GLY14      -0.2717
     14  N         28.0490    4.1380   13.1950 N.am   15  GLY15      -0.1942
     15  CA        28.8770    3.0530   13.6950 C.3    15  GLY15       0.2014
     16  C         30.2890    3.0910   13.1460 C.2    15  GLY15       0.2639
     17  O         31.2000    3.5910   13.8090 O.2    15  GLY15      -0.2714
     18  N         30.4720    2.5480   11.9440 N.am   16  LEU16      -0.1963
     19  CA        31.7770    2.5330   11.2900 C.3    16  LEU16       0.1728
     20  C         32.0880    3.9470   10.8240 C.2    16  LEU16       0.2616
     21  O         33.1710    4.4730   11.0820 O.2    16  LEU16      -0.2715
     22  CB        31.7680    1.5820   10.0920 C.3    16  LEU16       0.0311
     23  CG        31.5620    0.0950   10.3830 C.3    16  LEU16       0.0022
     24  CD1       31.5390   -0.6790    9.0730 C.3    16  LEU16       0.0001
     25  CD2       32.6730   -0.4140   11.2860 C.3    16  LEU16       0.0001
     26  N         31.1360    4.5490   10.1200 N.am   17  VAL17      -0.1977
     27  CA        31.2760    5.9230    9.6530 C.3    17  VAL17       0.1596
     28  C         30.6010    6.7220   10.7620 C.2    17  VAL17       0.2287
     29  O         29.3780    6.7150   10.8880 O.2    17  VAL17      -0.2864
     30  CB        30.5410    6.1430    8.3220 C.3    17  VAL17       0.0276
     31  CG1       30.6710    7.5990    7.8860 C.3    17  VAL17       0.0022
     32  CG2       31.1180    5.2180    7.2600 C.3    17  VAL17       0.0022
     33  N         29.4900    9.6400   11.4330 N.3    19  THR19      -0.1218
     34  CA        28.8500   10.9090   11.1380 C.3    19  THR19       0.1862
     35  C         27.6930   11.0910   12.1180 C.2    19  THR19       0.2287
     36  O         27.1140   10.1140   12.5940 O.2    19  THR19      -0.2866
     37  CB        28.3120   10.9390    9.7000 C.3    19  THR19       0.1770
     38  OG1       27.5260    9.7670    9.4530 O.3    19  THR19      -0.2211
     39  CG2       29.4660   10.9950    8.7090 C.3    19  THR19       0.0375
     40  N         23.9410   12.2420   12.8480 N.3    21  LYS21      -0.1245
     41  CA        22.6840   12.4720   12.1580 C.3    21  LYS21       0.1561
     42  C         21.5660   12.7000   13.1530 C.2    21  LYS21       0.2260
     43  O         21.5520   12.1110   14.2350 O.2    21  LYS21      -0.2867
     44  CB        22.3400   11.2700   11.2740 C.3    21  LYS21       0.0271
     45  CG        23.3920   10.9630   10.2140 C.3    21  LYS21       0.0035
     46  CD        23.4600   12.0710    9.1650 C.3    21  LYS21       0.0206
     47  CE        24.5580   11.7980    8.1470 C.3    21  LYS21       0.1093
     48  NZ        24.6540   12.8790    7.1250 N.3    21  LYS21      -0.1314
     49  N         17.9870   12.1060   14.3130 N.3    23  ARG23      -0.1245
     50  CA        16.9770   11.0810   14.1310 C.3    23  ARG23       0.1563
     51  C         15.8500   11.2170   15.1330 C.2    23  ARG23       0.2260
     52  O         16.0170   11.8090   16.1960 O.2    23  ARG23      -0.2867
     53  CB        17.6290    9.7060   14.2760 C.3    23  ARG23       0.0307
     54  CG        18.7000    9.4420   13.2430 C.3    23  ARG23       0.0489
     55  CD        18.0820    9.2620   11.8640 C.3    23  ARG23       0.2205
     56  NE        19.0890    9.0320   10.8280 N.pl3  23  ARG23      -0.0865
     57  CZ        19.4030    9.9100    9.8790 C.cat  23  ARG23       0.5346
     58  NH1       18.7950   11.0910    9.8240 N.pl3  23  ARG23       0.1354
     59  NH2       20.3190    9.6020    8.9720 N.pl3  23  ARG23       0.1354
     60  N         14.5260    4.3740   16.3530 N.3    34  TYR34      -0.1241
     61  CA        14.8750    5.6660   15.7950 C.3    34  TYR34       0.1605
     62  C         14.5690    5.6070   14.3120 C.2    34  TYR34       0.2264
     63  O         14.7640    4.5810   13.6530 O.2    34  TYR34      -0.2867
     64  CB        16.3160    6.0990   16.1060 C.3    34  TYR34       0.0534
     65  CG        17.4520    5.2480   15.6130 C.ar   34  TYR34      -0.0201
     66  CD1       17.9510    5.3830   14.3160 C.ar   34  TYR34      -0.0009
     67  CD2       18.0940    4.3700   16.4790 C.ar   34  TYR34      -0.0009
     68  CE1       19.0730    4.6620   13.9020 C.ar   34  TYR34       0.0417
     69  CE2       19.2040    3.6540   16.0840 C.ar   34  TYR34       0.0417
     70  CZ        19.6940    3.7970   14.8030 C.ar   34  TYR34       0.1957
     71  OH        20.8130    3.0830   14.4550 O.3    34  TYR34      -0.2866
     72  N         14.3120    8.0720   10.4510 N.3    36  LYS36      -0.1245
     73  CA        14.9710    9.1610    9.7360 C.3    36  LYS36       0.1561
     74  C         14.3930   10.4630   10.2750 C.2    36  LYS36       0.2260
     75  O         15.1270   11.4080   10.5690 O.2    36  LYS36      -0.2867
     76  CB        14.7070    9.0700    8.2300 C.3    36  LYS36       0.0271
     77  CG        15.4240    7.9270    7.5390 C.3    36  LYS36       0.0035
     78  CD        16.9320    8.0260    7.7140 C.3    36  LYS36       0.0206
     79  CE        17.6400    6.9020    6.9690 C.3    36  LYS36       0.1093
     80  NZ        19.0960    6.8370    7.2690 N.3    36  LYS36      -0.1314
     81  N         14.6510    2.8480   11.4830 N.3    44  ILE44      -0.1231
     82  CA        15.9310    2.4430   10.9230 C.3    44  ILE44       0.1692
     83  C         16.3770    1.2510   11.7500 C.2    44  ILE44       0.2591
     84  O         16.9320    0.2810   11.2340 O.2    44  ILE44      -0.2718
     85  CB        16.9800    3.5570   11.0750 C.3    44  ILE44       0.0266
     86  CG1       16.6460    4.7110   10.1300 C.3    44  ILE44       0.0019
     87  CG2       18.3700    3.0130   10.7980 C.3    44  ILE44       0.0020
     88  CD1       17.4760    5.9520   10.3880 C.3    44  ILE44       0.0001
     89  N         16.1110    1.3310   13.0480 N.am   45  ARG45      -0.1980
     90  CA        16.5030    0.2730   13.9560 C.3    45  ARG45       0.1597
     91  C         15.5940    0.2090   15.1700 C.2    45  ARG45       0.2287
     92  O         15.0530    1.2220   15.6130 O.2    45  ARG45      -0.2864
     93  CB        17.9530    0.5000   14.3940 C.3    45  ARG45       0.0334
     94  CG        18.6100   -0.6900   15.0640 C.3    45  ARG45       0.0492
     95  CD        20.1200   -0.5560   15.0180 C.3    45  ARG45       0.2205
     96  NE        20.7880   -1.7530   15.5170 N.pl3  45  ARG45      -0.0865
     97  CZ        22.0880   -1.9910   15.3850 C.cat  45  ARG45       0.5346
     98  NH1       22.8650   -1.1160   14.7630 N.pl3  45  ARG45       0.1354
     99  NH2       22.6110   -3.1040   15.8850 N.pl3  45  ARG45       0.1354
    100  N         27.2100   -2.8120   20.5420 N.3    74  ARG74      -0.1245
    101  CA        27.5470   -1.4400   20.2170 C.3    74  ARG74       0.1563
    102  C         27.1070   -0.4650   21.2870 C.2    74  ARG74       0.2260
    103  O         26.1550   -0.7140   22.0260 O.2    74  ARG74      -0.2867
    104  CB        26.8920   -1.0480   18.8950 C.3    74  ARG74       0.0307
    105  CG        26.9990    0.4280   18.5540 C.3    74  ARG74       0.0489
    106  CD        26.3970    0.6880   17.1960 C.3    74  ARG74       0.2205
    107  NE        26.3520    2.1070   16.8690 N.pl3  74  ARG74      -0.0865
    108  CZ        25.8230    2.5820   15.7500 C.cat  74  ARG74       0.5346
    109  NH1       25.3050    1.7420   14.8620 N.pl3  74  ARG74       0.1354
    110  NH2       25.7920    3.8910   15.5290 N.pl3  74  ARG74       0.1354
@<TRIPOS>BOND
     1    79    80    1
     2    79    78    1
     3    48    47    1
     4    32    30    1
     5    77    78    1
     6    77    76    1
     7    31    30    1
     8    47    46    1
     9    76    73    1
    10    30    27    1
    11    39    37    1
    12    59    57    1
    13    24    23    1
    14    46    45    1
    15    38    37    1
    16    27    26    1
    17    27    28    1
    18    37    34    1
    19    73    74    1
    20    73    72    1
    21    58    57    1
    22    57    56    2
    23    22    23    1
    24    22    19    1
    25    26    20   am
    26    86    88    1
    27    86    85    1
    28    45    44    1
    29    74    75    2
    30    23    25    1
    31    28    29    2
    32    87    85    1
    33    20    21    2
    34    20    19    1
    35    56    55    1
    36    82    85    1
    37    82    81    1
    38    82    83    1
    39    34    33    1
    40    34    35    1
    41    84    83    2
    42    44    41    1
    43    19    18    1
    44    83    89   am
    45    55    54    1
    46    18    16   am
    47    35    36    2
    48    41    40    1
    49    41    42    1
    50    89    90    1
    51    16    15    1
    52    16    17    2
    53    42    43    2
    54    11    12    1
    55    11    10    1
    56    14    15    1
    57    14    12   am
    58    54    53    1
    59    63    62    2
    60     9     8    1
    61    12    13    2
    62    68    66   ar
    63    68    70   ar
    64    90    93    1
    65    90    91    1
    66    50    53    1
    67    50    49    1
    68    50    51    1
    69    62    61    1
    70    66    65   ar
    71    93    94    1
    72    71    70    1
    73    98    97    1
    74    70    69   ar
    75   109   108    1
    76     4     3    2
    77    95    94    1
    78    95    96    1
    79     8     7    1
    80    51    52    2
    81    91    92    2
    82    97    96    2
    83    97    99    1
    84     7     6    1
    85   110   108    1
    86     6     5    1
    87    65    64    1
    88    65    67   ar
    89   108   107    2
    90    61    64    1
    91    61    60    1
    92     3     2    1
    93    69    67   ar
    94     1     2    1
    95   107   106    1
    96     5     2    1
    97   106   105    1
    98   105   104    1
    99   104   101    1
   100   101   100    1
   101   101   102    1
   102   102   103    2
