@<TRIPOS>MOLECULE
tmp/1faxA00.pdb
 182 183 0 0 0
SMALL
GASTEIGER

@<TRIPOS>ATOM
      1  N         13.6380   11.6430   14.4260 N.3    42  HIS42      -0.1241
      2  CA        12.1860   11.8050   14.3520 C.3    42  HIS42       0.1621
      3  C         11.7190   13.1940   14.7620 C.2    42  HIS42       0.2264
      4  O         10.8020   13.6760   14.1110 O.2    42  HIS42      -0.2867
      5  CB        11.4170   10.7610   15.2110 C.3    42  HIS42       0.0745
      6  CG        11.5070   10.9930   16.6890 C.ar   42  HIS42       0.0817
      7  ND1       12.4530   10.3810   17.4830 N.ar   42  HIS42      -0.2268
      8  CD2       10.7480   11.7450   17.5210 C.ar   42  HIS42       0.1154
      9  CE1       12.2740   10.7460   18.7400 C.ar   42  HIS42       0.1986
     10  NE2       11.2460   11.5740   18.7900 N.ar   42  HIS42      -0.2212
     11  N         11.5150    4.8240   10.5720 N.3    82  LYS82      -0.1231
     12  CA        10.4330    5.3120   11.4250 C.3    82  LYS82       0.1693
     13  C          9.7050    4.1960   12.1790 C.2    82  LYS82       0.2592
     14  O          9.3300    4.3910   13.3320 O.2    82  LYS82      -0.2718
     15  CB         9.4500    6.0970   10.5580 C.3    82  LYS82       0.0285
     16  CG         8.5720    7.0660   11.3350 C.3    82  LYS82       0.0035
     17  CD         7.8730    8.0520   10.4130 C.3    82  LYS82       0.0206
     18  CE         7.2000    9.1640   11.2040 C.3    82  LYS82       0.1093
     19  NZ         6.6180   10.1540   10.3170 N.3    82  LYS82      -0.1314
     20  N          9.5270    2.9930   11.6350 N.am   83  GLU83      -0.1966
     21  CA         8.7920    1.9570   12.3510 C.3    83  GLU83       0.1733
     22  C          9.6590    1.2590   13.3990 C.2    83  GLU83       0.2617
     23  O          9.0950    0.6210   14.2990 O.2    83  GLU83      -0.2715
     24  CB         8.2410    0.9580   11.3260 C.3    83  GLU83       0.0429
     25  CG         7.1140    0.0620   11.8530 C.3    83  GLU83       0.1163
     26  CD         5.8350    0.6950   12.4310 C.2    83  GLU83       0.3649
     27  OE1        5.4560    1.7870   12.0080 O.co2  83  GLU83      -0.2457
     28  OE2        5.2110    0.0700   13.3050 O.co2  83  GLU83      -0.2457
     29  N         10.9830    1.2850   13.3660 N.am   84  THR84      -0.1937
     30  CA        11.7700    0.6580   14.4220 C.3    84  THR84       0.2028
     31  C         12.2860    1.6960   15.3970 C.2    84  THR84       0.2642
     32  O         12.5080    1.4130   16.5700 O.2    84  THR84      -0.2714
     33  CB        12.9680   -0.1010   13.8290 C.3    84  THR84       0.1808
     34  OG1       13.5230    0.7550   12.8270 O.3    84  THR84      -0.2208
     35  CG2       12.5980   -1.4610   13.2730 C.3    84  THR84       0.0379
     36  N         12.4910    2.8840   14.8110 N.am   85  TYR85      -0.1973
     37  CA        13.1180    4.0670   15.3880 C.3    85  TYR85       0.1639
     38  C         14.6210    3.8770   15.4910 C.2    85  TYR85       0.2290
     39  O         15.3680    4.4960   16.2570 O.2    85  TYR85      -0.2864
     40  CB        12.5300    4.3650   16.7490 C.3    85  TYR85       0.0560
     41  CG        11.6090    5.5590   16.7650 C.ar   85  TYR85      -0.0198
     42  CD1       10.5580    5.6660   15.8570 C.ar   85  TYR85      -0.0009
     43  CD2       11.7930    6.5870   17.6830 C.ar   85  TYR85      -0.0009
     44  CE1        9.7150    6.7720   15.8610 C.ar   85  TYR85       0.0417
     45  CE2       10.9570    7.6920   17.7000 C.ar   85  TYR85       0.0417
     46  CZ         9.9230    7.7810   16.7850 C.ar   85  TYR85       0.1957
     47  OH         9.1120    8.8950   16.7950 O.3    85  TYR85      -0.2866
     48  N          9.3320   -4.1370   21.6510 N.3   162  PHE162     -0.1241
     49  CA         9.8380   -3.9080   20.3040 C.3   162  PHE162      0.1605
     50  C         11.3310   -4.1450   20.2720 C.2   162  PHE162      0.2264
     51  O         12.0400   -3.9100   21.2530 O.2   162  PHE162     -0.2867
     52  CB         9.5690   -2.4810   19.8440 C.3   162  PHE162      0.0534
     53  CG         8.1100   -2.1430   19.7340 C.ar  162  PHE162     -0.0203
     54  CD1        7.3740   -2.5380   18.6220 C.ar  162  PHE162     -0.0042
     55  CD2        7.4710   -1.4270   20.7390 C.ar  162  PHE162     -0.0042
     56  CE1        6.0210   -2.2210   18.5120 C.ar  162  PHE162     -0.0003
     57  CE2        6.1200   -1.1060   20.6390 C.ar  162  PHE162     -0.0003
     58  CZ         5.3900   -1.5030   19.5220 C.ar  162  PHE162     -0.0000
     59  N         11.6660    8.6810   35.1250 N.3   179  ASP179     -0.1225
     60  CA        12.1410    8.3830   33.7750 C.3   179  ASP179      0.1805
     61  C         11.9540    9.5680   32.8440 C.2   179  ASP179      0.2598
     62  O         11.1880   10.4920   33.1190 O.2   179  ASP179     -0.2718
     63  CB        11.3790    7.2200   33.1490 C.3   179  ASP179      0.1424
     64  CG        12.0160    6.6080   31.9210 C.2   179  ASP179      0.3668
     65  OD1       13.1900    6.2430   31.9850 O.co2 179  ASP179     -0.2456
     66  OD2       11.3340    6.4970   30.9110 O.co2 179  ASP179     -0.2456
     67  N         12.6780    9.5990   31.7290 N.am  180  ALA180     -0.1966
     68  CA        12.4040   10.5810   30.6870 C.3   180  ALA180      0.1728
     69  C         11.0470   10.2950   30.0590 C.2   180  ALA180      0.2616
     70  O         10.5840    9.1480   30.1350 O.2   180  ALA180     -0.2715
     71  CB        13.4640   10.5060   29.6020 C.3   180  ALA180      0.0334
     72  N         10.4090   11.2430   29.3860 N.am  181  CYS181     -0.1954
     73  CA         9.0620   11.0380   28.8690 C.3   181  CYS181      0.1843
     74  C          8.8600   11.7210   27.5190 C.2   181  CYS181      0.2625
     75  O          9.8410   12.1430   26.8930 O.2   181  CYS181     -0.2714
     76  CB         8.1070   11.5780   29.8950 C.3   181  CYS181      0.0997
     77  SG         6.3780   11.0950   29.6160 S.3   181  CYS181     -0.0797
     78  N          7.6210   11.8390   27.0120 N.am  182  GLN182     -0.1963
     79  CA         7.3350   12.4990   25.7410 C.3   182  GLN182      0.1733
     80  C          7.8010   13.9480   25.7710 C.2   182  GLN182      0.2616
     81  O          7.5700   14.6400   26.7650 O.2   182  GLN182     -0.2715
     82  CB         5.8380   12.5200   25.4250 C.3   182  GLN182      0.0408
     83  CG         5.1960   11.1470   25.3120 C.3   182  GLN182      0.0908
     84  CD         3.7150   11.1840   24.9430 C.2   182  GLN182      0.2608
     85  OE1        2.8480   11.5330   25.7390 O.2   182  GLN182     -0.2717
     86  NE2        3.3990   10.7890   23.7190 N.am  182  GLN182     -0.0878
     87  N          8.4670   14.4420   24.7260 N.am  183  GLY183     -0.1955
     88  CA         8.9370   15.8160   24.7270 C.3   183  GLY183      0.1869
     89  C         10.3710   15.9630   25.2030 C.2   183  GLY183      0.2309
     90  O         10.8520   17.0700   25.4290 O.2   183  GLY183     -0.2863
     91  N         12.5930   13.9770   23.5060 N.3   185  SER185     -0.1217
     92  CA        13.2240   13.4190   22.3170 C.3   185  SER185      0.1889
     93  C         14.3830   14.2990   21.8500 C.2   185  SER185      0.2288
     94  O         14.2520   15.5230   21.8730 O.2   185  SER185     -0.2866
     95  CB        12.1390   13.3050   21.2650 C.3   185  SER185      0.2089
     96  OG        11.0710   12.4260   21.5900 O.3   185  SER185     -0.2183
     97  N         17.9290   10.8960   23.8580 N.3   203  VAL203     -0.1231
     98  CA        16.6130   10.3460   24.1720 C.3   203  VAL203      0.1692
     99  C         15.8530   10.0110   22.9040 C.2   203  VAL203      0.2593
    100  O         15.5490   10.9060   22.1090 O.2   203  VAL203     -0.2718
    101  CB        15.7710   11.3380   25.0040 C.3   203  VAL203      0.0266
    102  CG1       14.5620   10.5940   25.5330 C.3   203  VAL203      0.0020
    103  CG2       16.5360   11.9050   26.1800 C.3   203  VAL203      0.0020
    104  N         15.5280    8.7400   22.7210 N.am  204  SER204     -0.1938
    105  CA        14.8500    8.3280   21.5030 C.3   204  SER204      0.2055
    106  C         13.3750    8.1050   21.7750 C.2   204  SER204      0.2643
    107  O         12.5600    9.0040   21.4990 O.2   204  SER204     -0.2714
    108  CB        15.5670    7.0690   20.9960 C.3   204  SER204      0.2130
    109  OG        15.1440    6.6210   19.7190 O.3   204  SER204     -0.2179
    110  N         13.0560    6.9760   22.4180 N.am  205  TRP205     -0.1959
    111  CA        11.6740    6.5830   22.6540 C.3   205  TRP205      0.1771
    112  C         11.5430    5.7310   23.9050 C.2   205  TRP205      0.2620
    113  O         12.4400    5.6920   24.7570 O.2   205  TRP205     -0.2715
    114  CB        11.1070    5.8190   21.4280 C.3   205  TRP205      0.0590
    115  CG        11.9030    4.6150   21.0000 C.ar  205  TRP205      0.0006
    116  CD1       12.9580    4.5910   20.1280 C.ar  205  TRP205      0.0946
    117  CD2       11.6860    3.2540   21.3860 C.ar  205  TRP205      0.0152
    118  NE1       13.3930    3.3470   19.9470 N.ar  205  TRP205     -0.2442
    119  CE2       12.6420    2.4830   20.7020 C.ar  205  TRP205      0.0810
    120  CE3       10.7790    2.6120   22.2390 C.ar  205  TRP205      0.0012
    121  CZ2       12.7250    1.0930   20.8400 C.ar  205  TRP205      0.0191
    122  CZ3       10.8590    1.2290   22.3780 C.ar  205  TRP205      0.0001
    123  CH2       11.8270    0.4860   21.6790 C.ar  205  TRP205      0.0015
    124  N         10.3720    5.1310   24.0880 N.am  206  GLY206     -0.1940
    125  CA        10.1460    4.2520   25.2200 C.3   206  GLY206      0.2014
    126  C          8.6630    4.0360   25.4320 C.2   206  GLY206      0.2639
    127  O          7.8510    4.8810   25.0520 O.2   206  GLY206     -0.2714
    128  N          8.3010    2.9070   26.0260 N.am  207  GLU207     -0.1963
    129  CA         6.8900    2.6150   26.2560 C.3   207  GLU207      0.1733
    130  C          6.3540    3.4110   27.4320 C.2   207  GLU207      0.2617
    131  O          6.4930    3.0770   28.6140 O.2   207  GLU207     -0.2715
    132  CB         6.7440    1.1260   26.4790 C.3   207  GLU207      0.0429
    133  CG         6.9790    0.2970   25.2270 C.3   207  GLU207      0.1163
    134  CD         7.2890   -1.1550   25.5200 C.2   207  GLU207      0.3649
    135  OE1        6.3640   -1.9000   25.8330 O.co2 207  GLU207     -0.2457
    136  OE2        8.4570   -1.5300   25.4390 O.co2 207  GLU207     -0.2457
    137  N          5.7920    4.5450   27.0310 N.am  208  GLY208     -0.1940
    138  CA         5.2540    5.4880   27.9930 C.3   208  GLY208      0.2014
    139  C          6.3620    6.1250   28.8060 C.2   208  GLY208      0.2639
    140  O          7.4600    6.3810   28.2940 O.2   208  GLY208     -0.2714
    141  N          6.1180    6.3230   30.0880 N.am  209  CYS209     -0.1967
    142  CA         7.1090    6.9570   30.9470 C.3   209  CYS209      0.1712
    143  C          7.0210    6.3930   32.3480 C.2   209  CYS209      0.2296
    144  O          5.9180    6.1150   32.8140 O.2   209  CYS209     -0.2864
    145  CB         6.8370    8.4430   30.9230 C.3   209  CYS209      0.0983
    146  SG         6.7000    9.1420   29.2460 S.3   209  CYS209     -0.0798
    147  N         11.8180    0.2660   30.5620 N.3   215  TYR215     -0.1227
    148  CA        12.8940    1.2320   30.7470 C.3   215  TYR215      0.1736
    149  C         12.8430    2.2850   29.6560 C.2   215  TYR215      0.2596
    150  O         12.1690    2.0840   28.6400 O.2   215  TYR215     -0.2718
    151  CB        14.2540    0.5350   30.6990 C.3   215  TYR215      0.0548
    152  CG        14.4010   -0.5950   31.6910 C.ar  215  TYR215     -0.0200
    153  CD1       14.6720   -0.3400   33.0340 C.ar  215  TYR215     -0.0009
    154  CD2       14.2550   -1.9220   31.2890 C.ar  215  TYR215     -0.0009
    155  CE1       14.7900   -1.3770   33.9520 C.ar  215  TYR215      0.0417
    156  CE2       14.3690   -2.9650   32.2020 C.ar  215  TYR215      0.0417
    157  CZ        14.6340   -2.6860   33.5300 C.ar  215  TYR215      0.1957
    158  OH        14.7370   -3.7150   34.4380 O.3   215  TYR215     -0.2866
    159  N         13.4460    3.4560   29.8560 N.am  216  GLY216     -0.1942
    160  CA        13.5430    4.4290   28.7840 C.3   216  GLY216      0.2014
    161  C         14.7070    4.0700   27.8860 C.2   216  GLY216      0.2639
    162  O         15.7470    3.6180   28.3700 O.2   216  GLY216     -0.2714
    163  N         14.5360    4.2170   26.5780 N.am  217  ILE217     -0.1963
    164  CA        15.6670    3.8370   25.7430 C.3   217  ILE217      0.1727
    165  C         16.2290    5.0550   25.0180 C.2   217  ILE217      0.2616
    166  O         15.5350    6.0340   24.6960 O.2   217  ILE217     -0.2715
    167  CB        15.2630    2.7130   24.7090 C.3   217  ILE217      0.0290
    168  CG1       14.5620    3.3050   23.5150 C.3   217  ILE217      0.0022
    169  CG2       14.3640    1.6860   25.3830 C.3   217  ILE217      0.0023
    170  CD1       15.5350    3.4240   22.3270 C.3   217  ILE217      0.0001
    171  N         17.5260    5.0100   24.7650 N.am  218  TYR218     -0.1974
    172  CA        18.2570    6.1070   24.1400 C.3   218  TYR218      0.1639
    173  C         19.0400    5.6200   22.9310 C.2   218  TYR218      0.2290
    174  O         19.3680    4.4320   22.8620 O.2   218  TYR218     -0.2864
    175  CB        19.1910    6.7190   25.2090 C.3   218  TYR218      0.0560
    176  CG        18.4770    7.0910   26.4870 C.ar  218  TYR218     -0.0198
    177  CD1       17.8440    8.3250   26.6210 C.ar  218  TYR218     -0.0009
    178  CD2       18.3860    6.1900   27.5430 C.ar  218  TYR218     -0.0009
    179  CE1       17.1180    8.6450   27.7650 C.ar  218  TYR218      0.0417
    180  CE2       17.6630    6.4990   28.6910 C.ar  218  TYR218      0.0417
    181  CZ        17.0250    7.7240   28.7920 C.ar  218  TYR218      0.1957
    182  OH        16.2790    8.0150   29.9130 O.3   218  TYR218     -0.2866
@<TRIPOS>BOND
     1    19    18    1
     2    17    18    1
     3    17    16    1
     4    15    16    1
     5    15    12    1
     6    11    12    1
     7    24    25    1
     8    24    21    1
     9    12    13    1
    10    20    13   am
    11    20    21    1
    12    25    26    1
    13    27    26   ar
    14    13    14    2
    15    21    22    1
    16    26    28   ar
    17    34    33    1
    18    35    33    1
    19    29    22   am
    20    29    30    1
    21    22    23    2
    22    33    30    1
    23     4     3    2
    24     2     1    1
    25     2     3    1
    26     2     5    1
    27    30    31    1
    28    36    37    1
    29    36    31   am
    30     5     6    1
    31    37    38    1
    32    37    40    1
    33    31    32    2
    34    38    39    2
    35    42    44   ar
    36    42    41   ar
    37    44    46   ar
    38     6     7   ar
    39     6     8   ar
    40    40    41    1
    41    41    43   ar
    42    46    47    1
    43    46    45   ar
    44     7     9   ar
    45     8    10   ar
    46    43    45   ar
    47    56    54   ar
    48    56    58   ar
    49    54    53   ar
    50     9    10   ar
    51    58    57   ar
    52   109   108    1
    53    53    52    1
    54    53    55   ar
    55    52    49    1
    56   118   116   ar
    57   118   119   ar
    58   116   115   ar
    59    50    49    1
    60    50    51    2
    61    49    48    1
    62    57    55   ar
    63   119   121   ar
    64   119   117   ar
    65   121   123   ar
    66   108   105    1
    67   115   117   ar
    68   115   114    1
    69    95    96    1
    70    95    92    1
    71   117   120   ar
    72   114   111    1
    73   107   106    2
    74   105   106    1
    75   105   104    1
    76   123   122   ar
    77   106   110   am
    78    93    94    2
    79    93    92    1
    80   100    99    2
    81   120   122   ar
    82    92    91    1
    83   170   168    1
    84   110   111    1
    85   111   112    1
    86   104    99   am
    87   174   173    2
    88    99    98    1
    89   173   172    1
    90   168   167    1
    91    86    84   am
    92    97    98    1
    93   112   124   am
    94   112   113    2
    95   124   125    1
    96   172   171    1
    97   172   175    1
    98    98   101    1
    99   166   165    2
   100   167   169    1
   101   167   164    1
   102    87    88    1
   103    87    80   am
   104    88    89    1
   105   171   165   am
   106    84    83    1
   107    84    85    2
   108   101   102    1
   109   101   103    1
   110   165   164    1
   111   127   126    2
   112    89    90    2
   113   175   176    1
   114   125   126    1
   115   133   134    1
   116   133   132    1
   117    83    82    1
   118    82    79    1
   119   126   128   am
   120   136   134   ar
   121   134   135   ar
   122    79    80    1
   123    79    78    1
   124   164   163    1
   125    80    81    2
   126   128   129    1
   127   129   132    1
   128   129   130    1
   129   176   177   ar
   130   176   178   ar
   131   163   161   am
   132   177   179   ar
   133    75    74    2
   134    78    74   am
   135   137   130   am
   136   137   138    1
   137   130   131    2
   138    74    73    1
   139   178   180   ar
   140   179   181   ar
   141   161   162    2
   142   161   160    1
   143   138   139    1
   144   140   139    2
   145   150   149    2
   146   180   181   ar
   147   160   159    1
   148   181   182    1
   149   139   141   am
   150    73    72    1
   151    73    76    1
   152   146    77    1
   153   146   145    1
   154    72    69   am
   155    71    68    1
   156    77    76    1
   157   149   159   am
   158   149   148    1
   159    69    70    2
   160    69    68    1
   161   141   142    1
   162   147   148    1
   163    68    67    1
   164   151   148    1
   165   151   152    1
   166    66    64   ar
   167   145   142    1
   168   142   143    1
   169   154   152   ar
   170   154   156   ar
   171   152   153   ar
   172    67    61   am
   173    64    65   ar
   174    64    63    1
   175   156   157   ar
   176   143   144    2
   177    61    62    2
   178    61    60    1
   179   153   155   ar
   180    63    60    1
   181   157   155   ar
   182   157   158    1
   183    60    59    1
