@<TRIPOS>MOLECULE
tmp/1fayA01.pdb
 86 82 0 0 0
SMALL
GASTEIGER

@<TRIPOS>ATOM
      1  N        -15.2860   10.7520    3.8650 N.3    84  PRO84      -0.2102
      2  CA       -15.8410    9.7510    4.7550 C.3    84  PRO84       0.1504
      3  C        -17.2610    9.4170    4.3370 C.2    84  PRO84       0.2575
      4  O        -17.8410   10.1420    3.5220 O.2    84  PRO84      -0.2718
      5  CB       -15.8020   10.3910    6.1280 C.3    84  PRO84       0.0282
      6  CG       -15.9530   11.8930    5.8580 C.3    84  PRO84       0.0208
      7  CD       -15.0940   12.0660    4.6220 C.3    84  PRO84       0.0893
      8  N        -17.8160    8.3250    4.8700 N.am   85  GLU85      -0.1980
      9  CA       -19.1820    7.9000    4.5510 C.3    85  GLU85       0.1602
     10  C        -20.1600    9.0340    4.9400 C.2    85  GLU85       0.2287
     11  O        -19.9610    9.7130    5.9420 O.2    85  GLU85      -0.2864
     12  CB       -19.4930    6.5940    5.2890 C.3    85  GLU85       0.0415
     13  CG       -18.8400    5.3320    4.7180 C.3    85  GLU85       0.1163
     14  CD       -17.4770    5.0700    5.2450 C.2    85  GLU85       0.3649
     15  OE1      -16.9460    5.9040    5.9840 O.co2  85  GLU85      -0.2457
     16  OE2      -16.9390    4.0350    4.9470 O.co2  85  GLU85      -0.2457
     17  N        -23.8880   11.1320    5.9140 N.3    87  ALA87      -0.1231
     18  CA       -24.8480   11.0560    7.0140 C.3    87  ALA87       0.1694
     19  C        -25.7090   12.3230    7.0690 C.2    87  ALA87       0.2592
     20  O        -25.3300   13.3350    6.4770 O.2    87  ALA87      -0.2718
     21  CB       -24.1050   10.8630    8.3270 C.3    87  ALA87       0.0304
     22  N        -26.8410   12.3050    7.7850 N.am   88  ASP88      -0.1974
     23  CA       -27.3410   11.1610    8.5530 C.3    88  ASP88       0.1709
     24  C        -28.6500   10.5850    8.0030 C.2    88  ASP88       0.2293
     25  O        -28.8510    9.3690    7.9630 O.2    88  ASP88      -0.2864
     26  CB       -27.5860   11.5710   10.0060 C.3    88  ASP88       0.1436
     27  CG       -26.3610   11.4210   10.8740 C.2    88  ASP88       0.3671
     28  OD1      -25.3660   12.1290   10.6440 O.co2  88  ASP88      -0.2456
     29  OD2      -26.3960   10.5860   11.7970 O.co2  88  ASP88      -0.2456
     30  N        -27.5270   15.0070   14.0980 N.3   105  GLY105     -0.1210
     31  CA       -27.0110   13.7930   13.4930 C.3   105  GLY105      0.1956
     32  C        -27.9200   12.5860   13.5480 C.2   105  GLY105      0.2612
     33  O        -29.0600   12.6400   13.1050 O.2   105  GLY105     -0.2717
     34  N        -27.4010   11.5000   14.1090 N.am  106  GLY106     -0.1956
     35  CA       -28.1460   10.2540   14.2090 C.3   106  GLY106      0.1869
     36  C        -29.5990   10.2620   14.6620 C.2   106  GLY106      0.2309
     37  O        -30.3880    9.4370   14.2020 O.2   106  GLY106     -0.2863
     38  N        -27.1710    6.6780    7.2540 N.3   127  PHE127     -0.1241
     39  CA       -25.9750    6.3290    8.0070 C.3   127  PHE127      0.1605
     40  C        -26.2080    5.2620    9.0750 C.2   127  PHE127      0.2264
     41  O        -27.1370    5.3590    9.8820 O.2   127  PHE127     -0.2867
     42  CB       -25.3700    7.5690    8.6680 C.3   127  PHE127      0.0534
     43  CG       -24.1130    7.2790    9.4190 C.ar  127  PHE127     -0.0203
     44  CD1      -22.9960    6.7880    8.7490 C.ar  127  PHE127     -0.0042
     45  CD2      -24.0640    7.4120   10.7990 C.ar  127  PHE127     -0.0042
     46  CE1      -21.8470    6.4340    9.4440 C.ar  127  PHE127     -0.0003
     47  CE2      -22.9170    7.0580   11.5000 C.ar  127  PHE127     -0.0003
     48  CZ       -21.8080    6.5680   10.8210 C.ar  127  PHE127     -0.0000
     49  N        -25.6460    3.7740   12.3950 N.3   129  ASN129     -0.1240
     50  CA       -25.1440    3.9430   13.7510 C.3   129  ASN129      0.1653
     51  C        -25.0750    2.5680   14.4040 C.2   129  ASN129      0.2266
     52  O        -25.2110    1.5460   13.7230 O.2   129  ASN129     -0.2867
     53  CB       -26.0590    4.8610   14.5590 C.3   129  ASN129      0.1155
     54  CG       -26.1630    6.2350   13.9520 C.2   129  ASN129      0.2627
     55  OD1      -26.5900    6.3850   12.8100 O.2   129  ASN129     -0.2716
     56  ND2      -25.7630    7.2460   14.7070 N.am  129  ASN129     -0.0877
     57  N        -23.8240   14.7590    8.9570 N.3   214  GLY214     -0.1210
     58  CA       -22.8380   14.1980    9.8750 C.3   214  GLY214      0.1956
     59  C        -22.2270   14.9850   11.0290 C.2   214  GLY214      0.2612
     60  O        -22.4290   16.1870   11.1750 O.2   214  GLY214     -0.2717
     61  N        -21.4620   14.2760   11.8540 N.am  215  TYR215     -0.1962
     62  CA       -20.7730   14.8440   13.0130 C.3   215  TYR215      0.1771
     63  C        -19.3070   15.1490   12.6990 C.2   215  TYR215      0.2619
     64  O        -18.6080   15.7780   13.4800 O.2   215  TYR215     -0.2715
     65  CB       -20.7960   13.8480   14.1690 C.3   215  TYR215      0.0574
     66  CG       -21.9320   14.0140   15.1330 C.ar  215  TYR215     -0.0198
     67  CD1      -22.9450   14.9350   14.9020 C.ar  215  TYR215     -0.0009
     68  CD2      -21.9900   13.2460   16.2960 C.ar  215  TYR215     -0.0009
     69  CE1      -23.9890   15.1000   15.8160 C.ar  215  TYR215      0.0417
     70  CE2      -23.0270   13.3970   17.2170 C.ar  215  TYR215      0.0417
     71  CZ       -24.0250   14.3240   16.9720 C.ar  215  TYR215      0.1957
     72  OH       -25.0430   14.4830   17.8890 O.3   215  TYR215     -0.2866
     73  N        -18.8830   14.7520   11.5160 N.am  216  GLN216     -0.1977
     74  CA       -17.5050   14.8410   11.0680 C.3   216  GLN216      0.1601
     75  C        -17.4390   15.6090    9.7350 C.2   216  GLN216      0.2287
     76  O        -18.4170   15.6560    8.9980 O.2   216  GLN216     -0.2864
     77  CB       -17.0860   13.3840   10.9170 C.3   216  GLN216      0.0394
     78  CG       -15.7050   13.0240   10.5000 C.3   216  GLN216      0.0908
     79  CD       -15.5680   11.4890   10.4350 C.2   216  GLN216      0.2608
     80  OE1      -16.5190   10.7460   10.7290 O.2   216  GLN216     -0.2717
     81  NE2      -14.3930   11.0170   10.0570 N.am  216  GLN216     -0.0878
     82  N        -19.0380   14.4090    6.1440 N.3   219  ALA219     -0.1245
     83  CA       -19.9980   13.3420    6.3470 C.3   219  ALA219      0.1562
     84  C        -21.3070   14.1010    6.2240 C.2   219  ALA219      0.2260
     85  O        -22.0700   14.2280    7.1890 O.2   219  ALA219     -0.2867
     86  CB       -19.8500   12.7460    7.7390 C.3   219  ALA219      0.0290
@<TRIPOS>BOND
     1     4     3    2
     2     1     7    1
     3     1     2    1
     4     3     2    1
     5     3     8   am
     6     9     8    1
     7     9    10    1
     8     9    12    1
     9     7     6    1
    10    13    14    1
    11    13    12    1
    12     2     5    1
    13    10    11    2
    14    16    14   ar
    15    14    15   ar
    16     6     5    1
    17    17    18    1
    18    82    83    1
    19    84    83    1
    20    84    85    2
    21    83    86    1
    22    20    19    2
    23    18    19    1
    24    18    21    1
    25    19    22   am
    26    38    39    1
    27    22    23    1
    28    25    24    2
    29    24    23    1
    30    39    42    1
    31    39    40    1
    32    23    26    1
    33    42    43    1
    34    44    43   ar
    35    44    46   ar
    36    57    58    1
    37    76    75    2
    38    40    41    2
    39    43    45   ar
    40    46    48   ar
    41    75    74    1
    42    58    59    1
    43    26    27    1
    44    81    79   am
    45    79    78    1
    46    79    80    2
    47    78    77    1
    48    28    27   ar
    49    45    47   ar
    50    48    47   ar
    51    27    29   ar
    52    77    74    1
    53    59    60    2
    54    59    61   am
    55    74    73    1
    56    73    63   am
    57    61    62    1
    58    49    50    1
    59    63    62    1
    60    63    64    2
    61    55    54    2
    62    62    65    1
    63    33    32    2
    64    31    32    1
    65    31    30    1
    66    32    34   am
    67    52    51    2
    68    50    51    1
    69    50    53    1
    70    54    53    1
    71    54    56   am
    72    34    35    1
    73    65    66    1
    74    37    36    2
    75    35    36    1
    76    67    66   ar
    77    67    69   ar
    78    66    68   ar
    79    69    71   ar
    80    68    70   ar
    81    71    70   ar
    82    71    72    1
