@<TRIPOS>MOLECULE
tmp/1fayA00.pdb
 78 70 0 0 0
SMALL
GASTEIGER

@<TRIPOS>ATOM
      1  N        -35.0550   27.7780   -0.5550 N.3    26  LYS26      -0.1245
      2  CA       -34.3440   28.3040   -1.7130 C.3    26  LYS26       0.1561
      3  C        -35.2870   29.1340   -2.5760 C.2    26  LYS26       0.2260
      4  O        -36.4970   29.1350   -2.3770 O.2    26  LYS26      -0.2867
      5  CB       -33.7580   27.1610   -2.5410 C.3    26  LYS26       0.0271
      6  CG       -32.9420   26.1820   -1.7130 C.3    26  LYS26       0.0035
      7  CD       -32.3930   25.0430   -2.5520 C.3    26  LYS26       0.0206
      8  CE       -31.2790   25.5080   -3.4750 C.3    26  LYS26       0.1093
      9  NZ       -30.7610   24.3830   -4.3030 N.3    26  LYS26      -0.1314
     10  N        -25.2990   22.7150    3.2690 N.3    36  LEU36      -0.1245
     11  CA       -24.0960   21.9600    2.9510 C.3    36  LEU36       0.1561
     12  C        -22.8850   22.8810    3.0790 C.2    36  LEU36       0.2260
     13  O        -21.7540   22.4170    3.2510 O.2    36  LEU36      -0.2867
     14  CB       -24.2040   21.4350    1.5200 C.3    36  LEU36       0.0270
     15  CG       -23.1320   20.4800    1.0100 C.3    36  LEU36       0.0019
     16  CD1      -23.2640   19.1560    1.7230 C.3    36  LEU36       0.0001
     17  CD2      -23.2970   20.2790   -0.4830 C.3    36  LEU36       0.0001
     18  N        -34.9750   14.9860   -2.5300 N.3    76  ASN76      -0.1240
     19  CA       -33.7890   14.7640   -3.3270 C.3    76  ASN76       0.1653
     20  C        -32.5780   14.7820   -2.4160 C.2    76  ASN76       0.2266
     21  O        -32.2810   15.7900   -1.7690 O.2    76  ASN76      -0.2867
     22  CB       -33.7010   15.8390   -4.4070 C.3    76  ASN76       0.1155
     23  CG       -32.3140   15.9890   -4.9980 C.2    76  ASN76       0.2627
     24  OD1      -31.5020   15.0600   -5.0180 O.2    76  ASN76      -0.2716
     25  ND2      -32.1020   17.1910   -5.4950 N.am   76  ASN76      -0.0877
     26  N        -28.5260   14.1280   -2.3900 N.3    78  THR78      -0.1218
     27  CA       -27.3250   13.9560   -3.1920 C.3    78  THR78       0.1862
     28  C        -26.1680   13.8510   -2.2120 C.2    78  THR78       0.2287
     29  O        -26.0170   14.6850   -1.3110 O.2    78  THR78      -0.2866
     30  CB       -27.1260   15.1320   -4.1410 C.3    78  THR78       0.1770
     31  OG1      -28.3130   15.3540   -4.8680 O.3    78  THR78      -0.2211
     32  CG2      -25.9670   14.9340   -5.0630 C.3    78  THR78       0.0375
     33  N        -22.3250   13.8840   -2.3050 N.3    80  PRO80      -0.2116
     34  CA       -21.1440   14.2770   -3.0810 C.3    80  PRO80       0.1372
     35  C        -19.9060   13.3990   -2.9730 C.2    80  PRO80       0.2244
     36  O        -19.3180   13.0360   -3.9900 O.2    80  PRO80      -0.2868
     37  CB       -20.8540   15.6960   -2.5920 C.3    80  PRO80       0.0268
     38  CG       -22.1550   16.1610   -2.0120 C.3    80  PRO80       0.0207
     39  CD       -22.6510   14.9280   -1.3180 C.3    80  PRO80       0.0892
     40  N        -28.8460   11.9910   -6.0890 N.3   158  GLY158     -0.1210
     41  CA       -29.3310   13.1550   -6.8170 C.3   158  GLY158      0.1956
     42  C        -30.6230   12.9710   -7.5990 C.2   158  GLY158      0.2612
     43  O        -30.9850   13.8290   -8.4070 O.2   158  GLY158     -0.2717
     44  N        -31.3180   11.8590   -7.3720 N.am  159  GLY159     -0.1942
     45  CA       -32.5730   11.6060   -8.0620 C.3   159  GLY159      0.2014
     46  C        -33.7730   12.0190   -7.2200 C.2   159  GLY159      0.2638
     47  O        -33.6670   12.1790   -5.9980 O.2   159  GLY159     -0.2714
     48  N        -34.9220   12.1930   -7.8630 N.am  160  VAL160     -0.1977
     49  CA       -36.1270   12.5920   -7.1440 C.3   160  VAL160      0.1596
     50  C        -36.8880   11.3770   -6.6060 C.2   160  VAL160      0.2287
     51  O        -37.3000   10.4880   -7.3600 O.2   160  VAL160     -0.2864
     52  CB       -37.0790   13.3980   -8.0490 C.3   160  VAL160      0.0276
     53  CG1      -38.1080   14.1160   -7.2010 C.3   160  VAL160      0.0022
     54  CG2      -36.3010   14.3800   -8.8800 C.3   160  VAL160      0.0022
     55  N        -27.1020   16.5170    0.8390 N.3   222  THR222     -0.1218
     56  CA       -28.1500   17.4990    0.6710 C.3   222  THR222      0.1862
     57  C        -29.4860   16.8950    1.0340 C.2   222  THR222      0.2287
     58  O        -29.7270   15.7100    0.8050 O.2   222  THR222     -0.2866
     59  CB       -28.2110   17.9760   -0.7740 C.3   222  THR222      0.1770
     60  OG1      -28.2870   16.8430   -1.6530 O.3   222  THR222     -0.2211
     61  CG2      -26.9770   18.7780   -1.1040 C.3   222  THR222      0.0375
     62  N        -33.2090   18.0700    0.3140 N.3   224  GLU224     -0.1245
     63  CA       -34.1920   18.9600   -0.2870 C.3   224  GLU224      0.1567
     64  C        -35.5610   18.3140   -0.4590 C.2   224  GLU224      0.2260
     65  O        -35.6790   17.1750   -0.9150 O.2   224  GLU224     -0.2867
     66  CB       -33.6900   19.4360   -1.6520 C.3   224  GLU224      0.0388
     67  CG       -32.5880   20.4760   -1.5780 C.3   224  GLU224      0.1160
     68  CD       -31.8910   20.6940   -2.9110 C.2   224  GLU224      0.3649
     69  OE1      -32.5930   20.8020   -3.9380 O.co2 224  GLU224     -0.2457
     70  OE2      -30.6400   20.7700   -2.9310 O.co2 224  GLU224     -0.2457
     71  N        -39.0890   18.7050   -2.3660 N.3   226  ILE226     -0.1245
     72  CA       -39.6520   19.3920   -3.5180 C.3   226  ILE226      0.1561
     73  C        -41.1400   19.7030   -3.3970 C.2   226  ILE226      0.2260
     74  O        -41.5820   20.7680   -3.8160 O.2   226  ILE226     -0.2867
     75  CB       -39.4360   18.5810   -4.7930 C.3   226  ILE226      0.0252
     76  CG1      -37.9430   18.3090   -4.9790 C.3   226  ILE226      0.0019
     77  CG2      -40.0100   19.3280   -5.9800 C.3   226  ILE226      0.0019
     78  CD1      -37.6020   17.5460   -6.2470 C.3   226  ILE226      0.0001
@<TRIPOS>BOND
     1    54    52    1
     2    43    42    2
     3    45    44    1
     4    45    46    1
     5    52    53    1
     6    52    49    1
     7    48    46   am
     8    48    49    1
     9    42    44   am
    10    42    41    1
    11    51    50    2
    12    46    47    2
    13    49    50    1
    14    41    40    1
    15    78    76    1
    16    77    75    1
    17    25    23   am
    18    32    30    1
    19    24    23    2
    20    23    22    1
    21    76    75    1
    22    31    30    1
    23    75    72    1
    24    22    19    1
    25     9     8    1
    26    30    27    1
    27    36    35    2
    28    69    68   ar
    29    74    73    2
    30    72    73    1
    31    72    71    1
    32     8     7    1
    33    19    18    1
    34    19    20    1
    35    27    26    1
    36    27    28    1
    37    34    35    1
    38    34    37    1
    39    34    33    1
    40    70    68   ar
    41    68    67    1
    42    37    38    1
    43     3     4    2
    44     3     2    1
    45     7     6    1
    46     5     6    1
    47     5     2    1
    48    20    21    2
    49    33    39    1
    50    28    29    2
    51    38    39    1
    52     2     1    1
    53    60    59    1
    54    66    67    1
    55    66    63    1
    56    61    59    1
    57    65    64    2
    58    59    56    1
    59    17    15    1
    60    64    63    1
    61    63    62    1
    62    56    55    1
    63    56    57    1
    64    58    57    2
    65    15    14    1
    66    15    16    1
    67    14    11    1
    68    11    12    1
    69    11    10    1
    70    12    13    2
