@<TRIPOS>MOLECULE
tmp/1fbhA00.pdb
 136 130 0 0 0
SMALL
GASTEIGER

@<TRIPOS>ATOM
      1  N         42.5960   88.7180   20.3440 N.3   103  ASP103     -0.1225
      2  CA        41.6760   89.1290   21.3760 C.3   103  ASP103      0.1805
      3  C         40.6190   88.0640   21.5970 C.2   103  ASP103      0.2598
      4  O         39.9240   87.6670   20.6480 O.2   103  ASP103     -0.2718
      5  CB        41.0520   90.4480   20.9460 C.3   103  ASP103      0.1424
      6  CG        40.0130   91.0030   21.9040 C.2   103  ASP103      0.3668
      7  OD1       40.3070   91.0940   23.0890 O.co2 103  ASP103     -0.2456
      8  OD2       38.9170   91.3500   21.4720 O.co2 103  ASP103     -0.2456
      9  N         40.4830   87.5890   22.8260 N.am  104  GLY104     -0.1957
     10  CA        39.5090   86.5800   23.1380 C.3   104  GLY104      0.1869
     11  C         40.0470   85.2190   22.7660 C.2   104  GLY104      0.2309
     12  O         39.2560   84.3700   22.3480 O.2   104  GLY104     -0.2863
     13  N         40.5910   82.7430   24.4040 N.3   106  SER106     -0.1202
     14  CA        39.8270   81.7340   25.1440 C.3   106  SER106      0.2020
     15  C         38.7190   81.1330   24.2490 C.2   106  SER106      0.2618
     16  O         38.5110   79.9160   24.1560 O.2   106  SER106     -0.2717
     17  CB        39.2720   82.4610   26.3830 C.3   106  SER106      0.2103
     18  OG        40.2410   83.3720   26.9300 O.3   106  SER106     -0.2182
     19  N         38.0880   82.0190   23.4680 N.am  107  ASN107     -0.1974
     20  CA        36.9880   81.7030   22.5690 C.3   107  ASN107      0.1688
     21  C         37.2450   80.7330   21.4290 C.2   107  ASN107      0.2292
     22  O         36.2840   80.2140   20.8360 O.2   107  ASN107     -0.2864
     23  CB        36.4530   82.9890   21.9730 C.3   107  ASN107      0.1181
     24  CG        35.7190   83.8380   22.9930 C.2   107  ASN107      0.2629
     25  OD1       35.0310   83.3310   23.8800 O.2   107  ASN107     -0.2716
     26  ND2       35.8890   85.1510   22.9600 N.am  107  ASN107     -0.0877
     27  N         26.6910   92.1840   28.0840 N.3   194  ASN194     -0.1240
     28  CA        26.6380   90.9370   28.7990 C.3   194  ASN194      0.1653
     29  C         25.6630   91.2390   29.9270 C.2   194  ASN194      0.2266
     30  O         26.0160   91.8300   30.9560 O.2   194  ASN194     -0.2867
     31  CB        28.0230   90.5670   29.3430 C.3   194  ASN194      0.1155
     32  CG        28.0640   89.1680   29.9480 C.2   194  ASN194      0.2627
     33  OD1       27.0140   88.6430   30.3550 O.2   194  ASN194     -0.2716
     34  ND2       29.2390   88.5490   30.0630 N.am  194  ASN194     -0.0877
     35  N         25.7230   90.4900   33.9760 N.3   197  TYR197     -0.1241
     36  CA        26.2130   91.3720   35.0160 C.3   197  TYR197      0.1605
     37  C         25.1360   92.2930   35.5400 C.2   197  TYR197      0.2264
     38  O         25.4570   93.2340   36.2770 O.2   197  TYR197     -0.2867
     39  CB        27.3600   92.2430   34.5110 C.3   197  TYR197      0.0534
     40  CG        28.5790   91.4410   34.1120 C.ar  197  TYR197     -0.0201
     41  CD1       29.1660   90.6030   35.0390 C.ar  197  TYR197     -0.0009
     42  CD2       29.0610   91.5260   32.8200 C.ar  197  TYR197     -0.0009
     43  CE1       30.2410   89.8300   34.6690 C.ar  197  TYR197      0.0417
     44  CE2       30.1280   90.7410   32.4440 C.ar  197  TYR197      0.0417
     45  CZ        30.7110   89.9160   33.3780 C.ar  197  TYR197      0.1957
     46  OH        31.8240   89.2050   33.0240 O.3   197  TYR197     -0.2866
     47  N         25.1820   89.2370   21.5540 N.3   226  TYR226     -0.1241
     48  CA        26.4130   89.4160   22.3070 C.3   226  TYR226      0.1605
     49  C         27.2700   88.1920   22.0450 C.2   226  TYR226      0.2264
     50  O         27.1390   87.1690   22.7220 O.2   226  TYR226     -0.2867
     51  CB        26.1690   89.5010   23.8080 C.3   226  TYR226      0.0534
     52  CG        27.4130   89.9410   24.5860 C.ar  226  TYR226     -0.0201
     53  CD1       27.8750   91.2420   24.4770 C.ar  226  TYR226     -0.0009
     54  CD2       28.0770   89.0670   25.4230 C.ar  226  TYR226     -0.0009
     55  CE1       28.9600   91.6750   25.2000 C.ar  226  TYR226      0.0417
     56  CE2       29.1670   89.5040   26.1640 C.ar  226  TYR226      0.0417
     57  CZ        29.5810   90.8110   26.0440 C.ar  226  TYR226      0.1957
     58  OH        30.6120   91.3610   26.7500 O.3   226  TYR226     -0.2866
     59  N         30.4690   87.9050   22.6230 N.3   228  GLY228     -0.1210
     60  CA        31.4420   87.6670   23.6990 C.3   228  GLY228      0.1956
     61  C         32.8670   87.8470   23.1730 C.2   228  GLY228      0.2613
     62  O         33.8510   87.4060   23.7720 O.2   228  GLY228     -0.2717
     63  N         33.0080   88.5710   22.0650 N.am  229  SER229     -0.1938
     64  CA        34.2720   88.7720   21.4160 C.3   229  SER229      0.2055
     65  C         34.1690   90.1740   20.8790 C.2   229  SER229      0.2642
     66  O         33.3440   90.4040   19.9770 O.2   229  SER229     -0.2714
     67  CB        34.4350   87.8130   20.2730 C.3   229  SER229      0.2130
     68  OG        35.7180   87.9840   19.7240 O.3   229  SER229     -0.2179
     69  N         35.0310   91.0830   21.3480 N.am  230  MET230     -0.1976
     70  CA        34.9150   92.4740   20.9750 C.3   230  MET230      0.1605
     71  C         34.9670   92.7190   19.4820 C.2   230  MET230      0.2287
     72  O         34.1870   93.5250   18.9700 O.2   230  MET230     -0.2864
     73  CB        36.0030   93.2820   21.6410 C.3   230  MET230      0.0413
     74  CG        35.8400   94.7740   21.3170 C.3   230  MET230      0.0598
     75  SD        37.2140   95.7540   21.9440 S.3   230  MET230     -0.1393
     76  CE        36.3840   97.3210   22.0600 C.3   230  MET230      0.0692
     77  N         27.0710   98.7500   21.1490 N.3   244  PHE244     -0.1241
     78  CA        27.8200   97.7330   21.8640 C.3   244  PHE244      0.1605
     79  C         28.2660   98.4190   23.1540 C.2   244  PHE244      0.2264
     80  O         28.7650   99.5490   23.1150 O.2   244  PHE244     -0.2867
     81  CB        29.0440   97.2690   21.0370 C.3   244  PHE244      0.0534
     82  CG        30.0360   96.4150   21.8420 C.ar  244  PHE244     -0.0203
     83  CD1       29.7210   95.1060   22.1530 C.ar  244  PHE244     -0.0042
     84  CD2       31.2200   96.9690   22.3190 C.ar  244  PHE244     -0.0042
     85  CE1       30.5550   94.3660   22.9560 C.ar  244  PHE244     -0.0003
     86  CE2       32.0440   96.2170   23.1260 C.ar  244  PHE244     -0.0003
     87  CZ        31.7160   94.9160   23.4470 C.ar  244  PHE244     -0.0000
     88  N         30.3790   97.9360   27.0300 N.3   246  TYR246     -0.1241
     89  CA        31.1050   97.2320   28.0780 C.3   246  TYR246      0.1605
     90  C         31.5270   98.3350   29.0420 C.2   246  TYR246      0.2264
     91  O         32.6640   98.8360   29.0360 O.2   246  TYR246     -0.2867
     92  CB        32.3800   96.4740   27.6020 C.3   246  TYR246      0.0534
     93  CG        32.7420   95.3370   28.5660 C.ar  246  TYR246     -0.0201
     94  CD1       32.9840   95.6000   29.8910 C.ar  246  TYR246     -0.0009
     95  CD2       32.7780   94.0250   28.1380 C.ar  246  TYR246     -0.0009
     96  CE1       33.2250   94.5800   30.7800 C.ar  246  TYR246      0.0417
     97  CE2       33.0310   92.9940   29.0230 C.ar  246  TYR246      0.0417
     98  CZ        33.2570   93.2790   30.3550 C.ar  246  TYR246      0.1957
     99  OH        33.5630   92.3130   31.3070 O.3   246  TYR246     -0.2866
    100  N         36.6490   96.4800   31.5540 N.3   256  LYS256     -0.1231
    101  CA        37.5370   95.3430   31.3210 C.3   256  LYS256      0.1693
    102  C         38.5610   95.6320   30.2410 C.2   256  LYS256      0.2592
    103  O         39.7410   95.3000   30.3360 O.2   256  LYS256     -0.2718
    104  CB        36.7280   94.1060   30.8980 C.3   256  LYS256      0.0285
    105  CG        37.5300   92.8220   30.7880 C.3   256  LYS256      0.0035
    106  CD        36.6840   91.7900   30.1050 C.3   256  LYS256      0.0206
    107  CE        37.4100   90.4670   30.2360 C.3   256  LYS256      0.1093
    108  NZ        36.6590   89.3660   29.6520 N.3   256  LYS256     -0.1314
    109  N         38.0700   96.2870   29.2070 N.am  257  LEU257     -0.1966
    110  CA        38.8260   96.4370   28.0010 C.3   257  LEU257      0.1728
    111  C         39.8700   97.5270   28.1450 C.2   257  LEU257      0.2616
    112  O         39.6400   98.5970   28.7010 O.2   257  LEU257     -0.2715
    113  CB        37.8130   96.6990   26.8760 C.3   257  LEU257      0.0311
    114  CG        36.6970   95.6770   26.6710 C.3   257  LEU257      0.0022
    115  CD1       35.8360   96.1260   25.5130 C.3   257  LEU257      0.0001
    116  CD2       37.2680   94.3050   26.3680 C.3   257  LEU257      0.0001
    117  N         41.0610   97.1450   27.7160 N.am  258  ARG258     -0.1977
    118  CA        42.2200   97.9960   27.7460 C.3   258  ARG258      0.1597
    119  C         42.1070   99.0720   26.6900 C.2   258  ARG258      0.2287
    120  O         41.7200   98.8690   25.5320 O.2   258  ARG258     -0.2864
    121  CB        43.4600   97.1380   27.5420 C.3   258  ARG258      0.0334
    122  CG        43.9450   96.3280   28.7670 C.3   258  ARG258      0.0492
    123  CD        43.0640   95.1890   29.3140 C.3   258  ARG258      0.2205
    124  NE        43.2360   93.8760   28.6930 N.pl3 258  ARG258     -0.0865
    125  CZ        42.2070   93.0200   28.5240 C.cat 258  ARG258      0.5346
    126  NH1       40.9370   93.3330   28.7800 N.pl3 258  ARG258      0.1354
    127  NH2       42.4130   91.8150   28.0100 N.pl3 258  ARG258      0.1354
    128  N         42.5030   98.0570   22.7530 N.3   262  GLU262     -0.1245
    129  CA        41.1830   97.5040   22.4840 C.3   262  GLU262      0.1567
    130  C         40.2430   98.6780   22.2860 C.2   262  GLU262      0.2260
    131  O         39.7710   98.9000   21.1730 O.2   262  GLU262     -0.2867
    132  CB        40.6990   96.6150   23.6530 C.3   262  GLU262      0.0388
    133  CG        41.5920   95.3860   23.8690 C.3   262  GLU262      0.1160
    134  CD        41.0790   94.4070   24.9120 C.2   262  GLU262      0.3649
    135  OE1       41.0710   94.7310   26.0840 O.co2 262  GLU262     -0.2457
    136  OE2       40.6830   93.3060   24.5720 O.co2 262  GLU262     -0.2457
@<TRIPOS>BOND
     1    72    71    2
     2    71    70    1
     3    68    67    1
     4    66    65    2
     5    67    64    1
     6     1     2    1
     7     4     3    2
     8    22    21    2
     9    65    69   am
    10    65    64    1
    11     5     2    1
    12     5     6    1
    13    70    69    1
    14    70    73    1
    15    81    82    1
    16    81    78    1
    17    77    78    1
    18   131   130    2
    19    74    73    1
    20    74    75    1
    21     2     3    1
    22    64    63    1
    23    21    20    1
    24     8     6   ar
    25    47    48    1
    26     3     9   am
    27    82    83   ar
    28    82    84   ar
    29    78    79    1
    30     6     7   ar
    31    75    76    1
    32    23    20    1
    33    23    24    1
    34    49    48    1
    35    49    50    2
    36    63    61   am
    37    83    85   ar
    38   130   129    1
    39    48    51    1
    40    84    86   ar
    41    12    11    2
    42   129   128    1
    43   129   132    1
    44    20    19    1
    45    59    60    1
    46    11    10    1
    47     9    10    1
    48    85    87   ar
    49    26    24   am
    50    24    25    2
    51    80    79    2
    52    86    87   ar
    53    61    60    1
    54    61    62    2
    55    19    15   am
    56   132   133    1
    57    51    52    1
    58   133   134    1
    59    16    15    2
    60    15    14    1
    61    13    14    1
    62    53    52   ar
    63    53    55   ar
    64   136   134   ar
    65    52    54   ar
    66   134   135   ar
    67    14    17    1
    68    55    57   ar
    69    54    56   ar
    70   115   114    1
    71   120   119    2
    72    57    56   ar
    73    57    58    1
    74   116   114    1
    75    17    18    1
    76   114   113    1
    77   119   118    1
    78   113   110    1
    79    88    89    1
    80   121   118    1
    81   121   122    1
    82    92    89    1
    83    92    93    1
    84   117   118    1
    85   117   111   am
    86   110   111    1
    87   110   109    1
    88   127   125    1
    89    89    90    1
    90    27    28    1
    91    95    93   ar
    92    95    97   ar
    93   111   112    2
    94   125   124    2
    95   125   126    1
    96    93    94   ar
    97   124   123    1
    98   122   123    1
    99    28    31    1
   100    28    29    1
   101    97    98   ar
   102    91    90    2
   103   109   102   am
   104    31    32    1
   105   108   107    1
   106    94    96   ar
   107    29    30    2
   108    32    34   am
   109    32    33    2
   110   106   107    1
   111   106   105    1
   112   102   103    2
   113   102   101    1
   114    98    96   ar
   115    98    99    1
   116   105   104    1
   117   104   101    1
   118   101   100    1
   119    44    42   ar
   120    44    45   ar
   121    42    40   ar
   122    46    45    1
   123    45    43   ar
   124    35    36    1
   125    40    39    1
   126    40    41   ar
   127    39    36    1
   128    43    41   ar
   129    36    37    1
   130    37    38    2
