@<TRIPOS>MOLECULE
tmp/1fbhB00.pdb
 136 130 0 0 0
SMALL
GASTEIGER

@<TRIPOS>ATOM
      1  N         21.6840   77.8060    7.7000 N.3   104  ASP104     -0.1225
      2  CA        21.0420   78.4230    8.8530 C.3   104  ASP104      0.1805
      3  C         21.5500   79.8420    9.0820 C.2   104  ASP104      0.2598
      4  O         22.7580   79.9130    9.3120 O.2   104  ASP104     -0.2718
      5  CB        21.3240   77.5150   10.0880 C.3   104  ASP104      0.1424
      6  CG        20.9080   78.1090   11.4330 C.2   104  ASP104      0.3668
      7  OD1       19.7100   78.1660   11.6950 O.co2 104  ASP104     -0.2456
      8  OD2       21.7770   78.5290   12.2060 O.co2 104  ASP104     -0.2456
      9  N         20.7840   80.9430    9.0340 N.am  105  GLY105     -0.1957
     10  CA        21.2850   82.2560    9.3090 C.3   105  GLY105      0.1869
     11  C         21.9210   82.9770    8.1310 C.2   105  GLY105      0.2309
     12  O         22.7850   83.7910    8.4090 O.2   105  GLY105     -0.2863
     13  N         21.4360   85.5040    6.4390 N.3   107  SER107     -0.1202
     14  CA        21.5200   86.9400    6.7200 C.3   107  SER107      0.2020
     15  C         22.8320   87.3400    7.4020 C.2   107  SER107      0.2618
     16  O         23.5330   88.2810    7.0120 O.2   107  SER107     -0.2717
     17  CB        20.3780   87.3600    7.6490 C.3   107  SER107      0.2103
     18  OG        19.5160   86.2780    8.0250 O.3   107  SER107     -0.2182
     19  N         23.1810   86.5350    8.4090 N.am  108  ASN108     -0.1974
     20  CA        24.3330   86.7390    9.2570 C.3   108  ASN108      0.1688
     21  C         25.6380   86.8040    8.5210 C.2   108  ASN108      0.2292
     22  O         26.6050   87.2890    9.1140 O.2   108  ASN108     -0.2864
     23  CB        24.4630   85.6350   10.3040 C.3   108  ASN108      0.1181
     24  CG        23.4100   85.6560   11.4100 C.2   108  ASN108      0.2629
     25  OD1       22.8990   86.7090   11.7760 O.2   108  ASN108     -0.2716
     26  ND2       22.9750   84.5430   11.9770 N.am  108  ASN108     -0.0877
     27  N         17.6070   85.4730   23.3660 N.3   195  ASN195     -0.1240
     28  CA        17.4910   86.8270   22.8290 C.3   195  ASN195      0.1653
     29  C         16.6340   87.6380   23.7880 C.2   195  ASN195      0.2266
     30  O         15.3970   87.6300   23.7200 O.2   195  ASN195     -0.2867
     31  CB        16.8330   86.8150   21.4460 C.3   195  ASN195      0.1155
     32  CG        16.7290   88.1660   20.7190 C.2   195  ASN195      0.2627
     33  OD1       16.7850   89.2610   21.2990 O.2   195  ASN195     -0.2716
     34  ND2       16.5880   88.1140   19.4050 N.am  195  ASN195     -0.0877
     35  N         13.3000   90.0410   23.3740 N.3   198  TYR198     -0.1241
     36  CA        11.9350   89.5600   23.4660 C.3   198  TYR198      0.1605
     37  C         11.3800   89.5210   24.8820 C.2   198  TYR198      0.2264
     38  O         10.2770   89.0030   25.0630 O.2   198  TYR198     -0.2867
     39  CB        11.8690   88.1750   22.8750 C.3   198  TYR198      0.0534
     40  CG        12.2060   88.1540   21.4040 C.ar  198  TYR198     -0.0201
     41  CD1       11.6370   89.0780   20.5510 C.ar  198  TYR198     -0.0009
     42  CD2       13.0580   87.1860   20.9230 C.ar  198  TYR198     -0.0009
     43  CE1       11.9250   89.0330   19.1990 C.ar  198  TYR198      0.0417
     44  CE2       13.3420   87.1350   19.5750 C.ar  198  TYR198      0.0417
     45  CZ        12.7850   88.0600   18.7190 C.ar  198  TYR198      0.1957
     46  OH        13.0850   88.0170   17.3710 O.3   198  TYR198     -0.2866
     47  N         24.9920   85.3410   23.2530 N.3   227  TYR227     -0.1241
     48  CA        23.9650   85.0610   22.2660 C.3   227  TYR227      0.1605
     49  C         24.4470   85.5500   20.9220 C.2   227  TYR227      0.2264
     50  O         24.3350   86.7210   20.5850 O.2   227  TYR227     -0.2867
     51  CB        22.6270   85.7680   22.5730 C.3   227  TYR227      0.0534
     52  CG        21.4500   85.1850   21.7710 C.ar  227  TYR227     -0.0201
     53  CD1       21.0380   83.9060   22.0600 C.ar  227  TYR227     -0.0009
     54  CD2       20.7930   85.8840   20.7740 C.ar  227  TYR227     -0.0009
     55  CE1       19.9940   83.3280   21.3950 C.ar  227  TYR227      0.0417
     56  CE2       19.7350   85.3050   20.0950 C.ar  227  TYR227      0.0417
     57  CZ        19.3590   84.0310   20.4210 C.ar  227  TYR227      0.1957
     58  OH        18.3710   83.3700   19.7550 O.3   227  TYR227     -0.2866
     59  N         23.1820   84.7480   18.0080 N.3   229  GLY229     -0.1210
     60  CA        22.0850   84.9600   17.0600 C.3   229  GLY229      0.1956
     61  C         22.1990   84.0130   15.8590 C.2   229  GLY229      0.2613
     62  O         21.7960   84.2950   14.7290 O.2   229  GLY229     -0.2717
     63  N         22.7260   82.8200   16.0710 N.am  230  SER230     -0.1938
     64  CA        22.8870   81.8770   14.9960 C.3   230  SER230      0.2055
     65  C         22.8550   80.5930   15.7820 C.2   230  SER230      0.2642
     66  O         23.7690   80.3090   16.5650 O.2   230  SER230     -0.2714
     67  CB        24.2350   82.0670   14.3000 C.3   230  SER230      0.2130
     68  OG        24.4580   80.9850   13.4120 O.3   230  SER230     -0.2179
     69  N         21.8120   79.8150   15.5730 N.am  231  MET231     -0.1976
     70  CA        21.5910   78.5900   16.3090 C.3   231  MET231      0.1605
     71  C         22.8200   77.6790   16.3430 C.2   231  MET231      0.2287
     72  O         23.2480   77.2580   17.4240 O.2   231  MET231     -0.2864
     73  CB        20.4260   77.8630   15.6760 C.3   231  MET231      0.0413
     74  CG        19.8080   76.9310   16.6690 C.3   231  MET231      0.0598
     75  SD        18.9410   75.6340   15.7720 S.3   231  MET231     -0.1393
     76  CE        18.2770   74.8910   17.2320 C.3   231  MET231      0.0692
     77  N         20.7010   76.8890   26.1600 N.3   245  PHE245     -0.1241
     78  CA        20.2980   77.7190   25.0440 C.3   245  PHE245      0.1605
     79  C         18.7960   77.6230   25.0440 C.2   245  PHE245      0.2264
     80  O         18.2590   76.5150   25.1530 O.2   245  PHE245     -0.2867
     81  CB        20.8210   77.1890   23.7150 C.3   245  PHE245      0.0534
     82  CG        20.2680   77.9210   22.4970 C.ar  245  PHE245     -0.0203
     83  CD1       20.7460   79.1780   22.1660 C.ar  245  PHE245     -0.0042
     84  CD2       19.2750   77.3300   21.7240 C.ar  245  PHE245     -0.0042
     85  CE1       20.2370   79.8240   21.0480 C.ar  245  PHE245     -0.0003
     86  CE2       18.7670   77.9910   20.6190 C.ar  245  PHE245     -0.0003
     87  CZ        19.2530   79.2330   20.2710 C.ar  245  PHE245     -0.0000
     88  N         15.2660   79.0190   22.9730 N.3   247  TYR247     -0.1241
     89  CA        14.4140   79.8070   22.1030 C.3   247  TYR247      0.1605
     90  C         12.9880   79.3110   22.4400 C.2   247  TYR247      0.2264
     91  O         12.4510   78.3980   21.7910 O.2   247  TYR247     -0.2867
     92  CB        14.7330   79.5920   20.5990 C.3   247  TYR247      0.0534
     93  CG        14.2450   80.7900   19.7590 C.ar  247  TYR247     -0.0201
     94  CD1       12.9280   81.2050   19.8360 C.ar  247  TYR247     -0.0009
     95  CD2       15.1150   81.5320   18.9760 C.ar  247  TYR247     -0.0009
     96  CE1       12.4840   82.3300   19.1830 C.ar  247  TYR247      0.0417
     97  CE2       14.6700   82.6550   18.2970 C.ar  247  TYR247      0.0417
     98  CZ        13.3430   83.0230   18.3740 C.ar  247  TYR247      0.1957
     99  OH        12.8020   83.9980   17.5630 O.3   247  TYR247     -0.2866
    100  N         10.1780   79.5550   17.1700 N.3   257  LYS257     -0.1231
    101  CA        10.5150   79.9780   15.8100 C.3   257  LYS257      0.1693
    102  C         11.1230   78.8550   14.9820 C.2   257  LYS257      0.2592
    103  O         10.8350   78.6500   13.8030 O.2   257  LYS257     -0.2718
    104  CB        11.5030   81.1810   15.8640 C.3   257  LYS257      0.0285
    105  CG        12.0890   81.6580   14.5280 C.3   257  LYS257      0.0035
    106  CD        13.2090   82.6760   14.6560 C.3   257  LYS257      0.0206
    107  CE        13.6650   82.9390   13.2310 C.3   257  LYS257      0.1093
    108  NZ        14.5810   84.0570   13.1540 N.3   257  LYS257     -0.1314
    109  N         11.9990   78.1160   15.6400 N.am  258  LEU258     -0.1966
    110  CA        12.8260   77.1490   14.9680 C.3   258  LEU258      0.1728
    111  C         12.0360   75.9310   14.5310 C.2   258  LEU258      0.2616
    112  O         11.1530   75.4410   15.2270 O.2   258  LEU258     -0.2715
    113  CB        13.9880   76.8100   15.9320 C.3   258  LEU258      0.0311
    114  CG        14.8410   78.0000   16.4560 C.3   258  LEU258      0.0022
    115  CD1       15.8820   77.5110   17.4400 C.3   258  LEU258      0.0001
    116  CD2       15.5040   78.7150   15.2890 C.3   258  LEU258      0.0001
    117  N         12.2990   75.5250   13.3030 N.am  259  ARG259     -0.1977
    118  CA        11.6520   74.3840   12.7150 C.3   259  ARG259      0.1597
    119  C         12.0530   73.0730   13.3620 C.2   259  ARG259      0.2287
    120  O         13.2290   72.7260   13.5220 O.2   259  ARG259     -0.2864
    121  CB        11.9800   74.3360   11.2520 C.3   259  ARG259      0.0334
    122  CG        11.1370   75.2330   10.3660 C.3   259  ARG259      0.0492
    123  CD        11.2000   76.7080   10.6520 C.3   259  ARG259      0.2205
    124  NE        12.5500   77.2400   10.6710 N.pl3 259  ARG259     -0.0865
    125  CZ        12.8460   78.4280   10.1310 C.cat 259  ARG259      0.5346
    126  NH1       11.9410   79.1460    9.4520 N.pl3 259  ARG259      0.1354
    127  NH2       14.0950   78.8920   10.2280 N.pl3 259  ARG259      0.1354
    128  N         16.0560   71.6220   12.4960 N.3   263  GLU263     -0.1196
    129  CA        16.8540   72.5250   13.3010 C.3   263  GLU263      0.1783
    130  C         16.6810   71.9120   14.6790 C.2   263  GLU263      0.2306
    131  O         17.5890   71.2120   15.1270 O.2   263  GLU263     -0.2863
    132  CB        16.3130   73.9630   13.2560 C.2   263  GLU263      0.0071
    133  CG        16.1950   74.6040   11.8520 C.2   263  GLU263      0.0834
    134  CD        15.7750   76.0700   11.8180 C.2   263  GLU263      0.3877
    135  OE1       15.1170   76.5410   12.7330 O.co2 263  GLU263     -0.2406
    136  OE2       16.1120   76.7780   10.8800 O.co2 263  GLU263     -0.2406
@<TRIPOS>BOND
     1    13    14    1
     2    14    15    1
     3    14    17    1
     4    16    15    2
     5    15    19   am
     6    17    18    1
     7     1     2    1
     8    11    12    2
     9    11    10    1
    10    19    20    1
    11    21    22    2
    12    21    20    1
    13     2     3    1
    14     2     5    1
    15     9     3   am
    16     9    10    1
    17     3     4    2
    18    20    23    1
    19   126   125    1
    20     5     6    1
    21   125   127    1
    22   125   124    2
    23    23    24    1
    24   122   123    1
    25   122   121    1
    26   123   124    1
    27   136   134   ar
    28   121   118    1
    29    24    25    2
    30    24    26   am
    31     6     7   ar
    32     6     8   ar
    33   134   133    1
    34   134   135   ar
    35   133   132    2
    36   128   129    1
    37   118   117    1
    38   118   119    1
    39   108   107    1
    40   107   106    1
    41   132   129    1
    42   129   130    1
    43   117   111   am
    44   119   120    2
    45    68    67    1
    46   103   102    2
    47    67    64    1
    48   105   106    1
    49   105   104    1
    50   111   110    1
    51   111   112    2
    52   130   131    2
    53    62    61    2
    54   110   109    1
    55   110   113    1
    56   102   109   am
    57   102   101    1
    58    64    65    1
    59    64    63    1
    60   116   114    1
    61    69    65   am
    62    69    70    1
    63    73    70    1
    64    73    74    1
    65    75    74    1
    66    75    76    1
    67    65    66    2
    68   101   104    1
    69   101   100    1
    70    61    63   am
    71    61    60    1
    72   113   114    1
    73    70    71    1
    74    71    72    2
    75   114   115    1
    76    60    59    1
    77    46    45    1
    78    99    98    1
    79    97    98   ar
    80    97    95   ar
    81    98    96   ar
    82    45    43   ar
    83    45    44   ar
    84    95    93   ar
    85    96    94   ar
    86    43    41   ar
    87    34    32   am
    88    44    42   ar
    89    58    57    1
    90    93    94   ar
    91    93    92    1
    92    56    57   ar
    93    56    54   ar
    94    87    86   ar
    95    87    85   ar
    96    57    55   ar
    97    41    40   ar
    98    50    49    2
    99    92    89    1
   100    86    84   ar
   101    32    33    2
   102    32    31    1
   103    54    52   ar
   104    49    48    1
   105    42    40   ar
   106    85    83   ar
   107    55    53   ar
   108    40    39    1
   109    31    28    1
   110    84    82   ar
   111    52    53   ar
   112    52    51    1
   113    91    90    2
   114    89    90    1
   115    89    88    1
   116    83    82   ar
   117    48    51    1
   118    48    47    1
   119    82    81    1
   120    28    27    1
   121    28    29    1
   122    39    36    1
   123    35    36    1
   124    36    37    1
   125    81    78    1
   126    30    29    2
   127    37    38    2
   128    79    78    1
   129    79    80    2
   130    78    77    1
