@<TRIPOS>MOLECULE
tmp/1fblA00.pdb
 156 156 0 0 0
SMALL
GASTEIGER

@<TRIPOS>ATOM
      1  N         76.4350   71.4910  -11.2060 N.3    76  ASP76      -0.1239
      2  CA        77.8760   71.2240  -11.1260 C.3    76  ASP76       0.1674
      3  C         78.3400   70.4910   -9.8700 C.2    76  ASP76       0.2266
      4  O         79.5350   70.4060   -9.5960 O.2    76  ASP76      -0.2867
      5  CB        78.6520   72.5570  -11.2590 C.3    76  ASP76       0.1410
      6  CG        78.2580   73.6330  -10.1850 C.2    76  ASP76       0.3668
      7  OD1       77.2000   73.5380   -9.5010 O.co2  76  ASP76      -0.2456
      8  OD2       79.0310   74.6040  -10.0520 O.co2  76  ASP76      -0.2456
      9  N         79.5820   76.2570   -5.8950 N.3    80  GLY80      -0.1210
     10  CA        79.5460   76.9690   -7.1520 C.3    80  GLY80       0.1956
     11  C         78.1230   77.3440   -7.4290 C.2    80  GLY80       0.2612
     12  O         77.4960   77.9610   -6.5860 O.2    80  GLY80      -0.2717
     13  N         77.6250   76.9050   -8.5900 N.am   81  ASN81      -0.1960
     14  CA        76.2310   77.0190   -9.0320 C.3    81  ASN81       0.1819
     15  C         75.3020   76.3290   -8.0020 C.2    81  ASN81       0.2621
     16  O         75.4350   75.0810   -7.7340 O.2    81  ASN81      -0.2715
     17  CB        76.1100   76.3360  -10.3860 C.3    81  ASN81       0.1195
     18  CG        74.9150   76.7940  -11.1860 C.2    81  ASN81       0.2630
     19  OD1       74.1280   77.6490  -10.7660 O.2    81  ASN81      -0.2716
     20  ND2       74.7980   76.2520  -12.3860 N.am   81  ASN81      -0.0877
     21  N         74.4180   77.1560   -7.4060 N.am   82  LEU82      -0.1963
     22  CA        73.4670   76.7650   -6.3570 C.3    82  LEU82       0.1728
     23  C         72.0750   76.5250   -6.9210 C.2    82  LEU82       0.2616
     24  O         71.4360   75.5400   -6.5850 O.2    82  LEU82      -0.2715
     25  CB        73.3340   77.8630   -5.2790 C.3    82  LEU82       0.0311
     26  CG        74.4270   78.7330   -4.6340 C.3    82  LEU82       0.0022
     27  CD1       73.8560   79.3900   -3.4290 C.3    82  LEU82       0.0001
     28  CD2       75.6020   77.8920   -4.2250 C.3    82  LEU82       0.0001
     29  N         71.6000   77.4370   -7.7650 N.am   83  ALA83      -0.1963
     30  CA        70.2530   77.3380   -8.2970 C.3    83  ALA83       0.1728
     31  C         70.0700   78.1770   -9.5450 C.2    83  ALA83       0.2616
     32  O         70.9590   78.9480   -9.8920 O.2    83  ALA83      -0.2715
     33  CB        69.2470   77.7660   -7.2370 C.3    83  ALA83       0.0334
     34  N         68.9290   77.9890  -10.2220 N.am   84  HIS84      -0.1959
     35  CA        68.5120   78.7470  -11.4020 C.3    84  HIS84       0.1787
     36  C         66.9930   78.6850  -11.6470 C.2    84  HIS84       0.2620
     37  O         66.3380   77.7420  -11.2120 O.2    84  HIS84      -0.2715
     38  CB        69.3250   78.3620  -12.6650 C.3    84  HIS84       0.0785
     39  CG        69.0850   76.9850  -13.2100 C.ar   84  HIS84       0.0821
     40  ND1       70.1070   76.1990  -13.7060 N.ar   84  HIS84      -0.2267
     41  CD2       67.9410   76.3120  -13.4860 C.ar   84  HIS84       0.1154
     42  CE1       69.6000   75.1170  -14.2610 C.ar   84  HIS84       0.1986
     43  NE2       68.2850   75.1650  -14.1600 N.ar   84  HIS84      -0.2212
     44  N         66.4760   79.6510  -12.4110 N.am   85  ALA85      -0.1977
     45  CA        65.0440   79.8650  -12.6730 C.3    85  ALA85       0.1597
     46  C         64.8220   80.3840  -14.1060 C.2    85  ALA85       0.2287
     47  O         65.7690   80.8170  -14.7700 O.2    85  ALA85      -0.2864
     48  CB        64.4940   80.8750  -11.6830 C.3    85  ALA85       0.0319
     49  N         74.5840   78.0480    2.2330 N.3   111  TYR111     -0.1241
     50  CA        73.4670   77.8830    1.3170 C.3   111  TYR111      0.1605
     51  C         72.1550   77.7770    2.0350 C.2   111  TYR111      0.2264
     52  O         71.5410   76.7250    2.1450 O.2   111  TYR111     -0.2867
     53  CB        73.7420   76.8060    0.2780 C.3   111  TYR111      0.0534
     54  CG        75.0930   77.0190   -0.3520 C.ar  111  TYR111     -0.0201
     55  CD1       75.6730   78.2910   -0.3860 C.ar  111  TYR111     -0.0009
     56  CD2       75.8350   75.9620   -0.8040 C.ar  111  TYR111     -0.0009
     57  CE1       76.9730   78.4910   -0.8390 C.ar  111  TYR111      0.0417
     58  CE2       77.1260   76.1490   -1.2620 C.ar  111  TYR111      0.0417
     59  CZ        77.6910   77.4040   -1.2690 C.ar  111  TYR111      0.1957
     60  OH        79.0050   77.5540   -1.6250 O.3   111  TYR111     -0.2866
     61  N         67.4490   82.4700    1.3340 N.3   115  ARG115     -0.1231
     62  CA        68.2910   83.4260    0.5950 C.3   115  ARG115      0.1694
     63  C         68.3580   83.1740   -0.9130 C.2   115  ARG115      0.2591
     64  O         68.3300   84.1170   -1.7220 O.2   115  ARG115     -0.2718
     65  CB        69.7030   83.3960    1.2060 C.3   115  ARG115      0.0321
     66  CG        70.7290   84.4040    0.6530 C.3   115  ARG115      0.0489
     67  CD        70.3110   85.8910    0.7700 C.3   115  ARG115      0.2205
     68  NE        71.2850   86.7960    0.1250 N.pl3 115  ARG115     -0.0865
     69  CZ        71.4650   86.9340   -1.1990 C.cat 115  ARG115      0.5346
     70  NH1       70.7080   86.2730   -2.0780 N.pl3 115  ARG115      0.1354
     71  NH2       72.4430   87.7030   -1.6560 N.pl3 115  ARG115      0.1354
     72  N         68.4880   81.8990   -1.2820 N.am  116  VAL116     -0.1980
     73  CA        68.5330   81.4600   -2.6810 C.3   116  VAL116      0.1595
     74  C         67.1440   81.5420   -3.3710 C.2   116  VAL116      0.2287
     75  O         67.0420   82.0320   -4.5070 O.2   116  VAL116     -0.2864
     76  CB        69.1260   80.0340   -2.7700 C.3   116  VAL116      0.0276
     77  CG1       69.4270   79.6350   -4.2110 C.3   116  VAL116      0.0022
     78  CG2       70.3680   79.9900   -1.9850 C.3   116  VAL116      0.0022
     79  N         66.1960   85.0110   -4.5200 N.3   119  HIS119     -0.1226
     80  CA        66.9200   85.3820   -5.7220 C.3   119  HIS119      0.1752
     81  C         66.2140   84.8720   -6.9540 C.2   119  HIS119      0.2595
     82  O         65.8350   85.6700   -7.8110 O.2   119  HIS119     -0.2718
     83  CB        68.3620   84.8490   -5.7460 C.3   119  HIS119      0.0759
     84  CG        69.1550   85.3390   -6.9270 C.ar  119  HIS119      0.0818
     85  ND1       70.0880   86.3480   -6.8250 N.ar  119  HIS119     -0.2268
     86  CD2       69.1270   84.9920   -8.2380 C.ar  119  HIS119      0.1154
     87  CE1       70.5980   86.6010   -8.0140 C.ar  119  HIS119      0.1986
     88  NE2       70.0250   85.7960   -8.9010 N.ar  119  HIS119     -0.2212
     89  N         66.1150   83.5430   -7.0600 N.am  120  GLU120     -0.1979
     90  CA        65.4990   82.8580   -8.2030 C.3   120  GLU120      0.1602
     91  C         64.1190   83.3300   -8.5690 C.2   120  GLU120      0.2287
     92  O         63.8170   83.3630   -9.7480 O.2   120  GLU120     -0.2864
     93  CB        65.4440   81.3310   -8.0310 C.3   120  GLU120      0.0415
     94  CG        66.6950   80.6730   -7.4900 C.3   120  GLU120      0.1163
     95  CD        67.9750   81.1620   -8.1400 C.2   120  GLU120      0.3649
     96  OE1       68.0690   81.2650   -9.3840 O.co2 120  GLU120     -0.2457
     97  OE2       68.9150   81.4370   -7.3870 O.co2 120  GLU120     -0.2457
     98  N         63.5080   86.2390  -10.7000 N.3   123  HIS123     -0.1241
     99  CA        63.7230   85.8580  -12.0840 C.3   123  HIS123      0.1621
    100  C         62.4060   85.4040  -12.6470 C.2   123  HIS123      0.2264
    101  O         61.9860   85.9100  -13.6930 O.2   123  HIS123     -0.2867
    102  CB        64.7410   84.7120  -12.2020 C.3   123  HIS123      0.0745
    103  CG        66.1560   85.1710  -12.1650 C.ar  123  HIS123      0.0817
    104  ND1       66.5580   86.3180  -12.8020 N.ar  123  HIS123     -0.2268
    105  CD2       67.2300   84.7230  -11.4860 C.ar  123  HIS123      0.1154
    106  CE1       67.8120   86.5750  -12.5070 C.ar  123  HIS123      0.1986
    107  NE2       68.2480   85.6210  -11.6970 N.ar  123  HIS123     -0.2212
    108  N         69.8850   90.3180  -13.1190 N.3   129  HIS129     -0.1241
    109  CA        70.8390   90.6910  -12.0940 C.3   129  HIS129      0.1621
    110  C         71.0740   92.1420  -11.9610 C.2   129  HIS129      0.2264
    111  O         71.2860   92.8510  -12.9540 O.2   129  HIS129     -0.2867
    112  CB        72.1740   90.0580  -12.3520 C.3   129  HIS129      0.0745
    113  CG        72.1440   88.5720  -12.3390 C.ar  129  HIS129      0.0817
    114  ND1       72.7920   87.8310  -13.2980 N.ar  129  HIS129     -0.2268
    115  CD2       71.6310   87.6850  -11.4540 C.ar  129  HIS129      0.1154
    116  CE1       72.6950   86.5480  -13.0030 C.ar  129  HIS129      0.1986
    117  NE2       71.9980   86.4290  -11.8790 N.ar  129  HIS129     -0.2212
    118  N         71.5120   90.6710   -7.0140 N.3   138  TYR138     -0.1228
    119  CA        72.9160   90.6430   -7.3750 C.3   138  TYR138      0.1721
    120  C         73.1660   89.1670   -7.7720 C.2   138  TYR138      0.2437
    121  O         72.4750   88.2550   -7.2620 O.2   138  TYR138     -0.2733
    122  CB        73.7200   90.9740   -6.1380 C.3   138  TYR138      0.0547
    123  CG        75.1620   91.1990   -6.4010 C.ar  138  TYR138     -0.0200
    124  CD1       75.6050   92.4020   -6.9660 C.ar  138  TYR138     -0.0009
    125  CD2       76.1140   90.2660   -5.9800 C.ar  138  TYR138     -0.0009
    126  CE1       76.9520   92.6820   -7.0820 C.ar  138  TYR138      0.0417
    127  CE2       77.4680   90.5350   -6.1000 C.ar  138  TYR138      0.0417
    128  CZ        77.8650   91.7500   -6.6420 C.ar  138  TYR138      0.1957
    129  OH        79.1850   92.0560   -6.6710 O.3   138  TYR138     -0.2866
    130  N         74.1570   88.9000   -8.6640 N.am  139  PRO139     -0.2718
    131  CA        74.5190   87.5600   -9.1940 C.3   139  PRO139      0.1535
    132  C         75.1910   86.4660   -8.3280 C.2   139  PRO139      0.2599
    133  O         75.1270   85.2740   -8.6820 O.2   139  PRO139     -0.2715
    134  CB        75.3880   87.8980  -10.4150 C.3   139  PRO139      0.0310
    135  CG        76.1380   89.1540   -9.9680 C.3   139  PRO139      0.0237
    136  CD        75.0130   89.9550   -9.2620 C.3   139  PRO139      0.0939
    137  N         75.8500   86.8530   -7.2390 N.am  140  ASN140     -0.1959
    138  CA        76.5310   85.8970   -6.3790 C.3   140  ASN140      0.1819
    139  C         75.9090   85.7720   -4.9860 C.2   140  ASN140      0.2621
    140  O         75.3750   86.7370   -4.4400 O.2   140  ASN140     -0.2715
    141  CB        77.9850   86.2990   -6.1930 C.3   140  ASN140      0.1195
    142  CG        78.7600   86.4220   -7.4940 C.2   140  ASN140      0.2630
    143  OD1       79.7400   87.1730   -7.5430 O.2   140  ASN140     -0.2716
    144  ND2       78.3870   85.6460   -8.5240 N.am  140  ASN140     -0.0877
    145  N         76.0450   84.5950   -4.3820 N.am  141  TYR141     -0.1974
    146  CA        75.5500   84.3550   -3.0370 C.3   141  TYR141      0.1639
    147  C         76.3470   85.1410   -2.0090 C.2   141  TYR141      0.2290
    148  O         77.5390   84.9370   -1.8700 O.2   141  TYR141     -0.2864
    149  CB        75.6310   82.8670   -2.6850 C.3   141  TYR141      0.0560
    150  CG        75.0510   82.4800   -1.3180 C.ar  141  TYR141     -0.0198
    151  CD1       73.6920   82.1480   -1.1760 C.ar  141  TYR141     -0.0009
    152  CD2       75.8660   82.4260   -0.1660 C.ar  141  TYR141     -0.0009
    153  CE1       73.1590   81.7790    0.0730 C.ar  141  TYR141      0.0417
    154  CE2       75.3350   82.0520    1.0960 C.ar  141  TYR141      0.0417
    155  CZ        73.9760   81.7290    1.2140 C.ar  141  TYR141      0.1957
    156  OH        73.4480   81.3520    2.4550 O.3   141  TYR141     -0.2866
@<TRIPOS>BOND
     1    47    46    2
     2    42    43   ar
     3    42    40   ar
     4    43    41   ar
     5    46    45    1
     6    40    39   ar
     7   101   100    2
     8    41    39   ar
     9   114   116   ar
    10   114   113   ar
    11    39    38    1
    12   108   109    1
    13   116   117   ar
    14   111   110    2
    15   104   106   ar
    16   104   103   ar
    17    45    44    1
    18    45    48    1
    19    38    35    1
    20   100    99    1
    21   106   107   ar
    22    44    36   am
    23    20    18   am
    24   112   113    1
    25   112   109    1
    26   113   115   ar
    27   102   103    1
    28   102    99    1
    29   103   105   ar
    30   109   110    1
    31    99    98    1
    32   117   115   ar
    33   107   105   ar
    34    36    35    1
    35    36    37    2
    36    35    34    1
    37     5     2    1
    38     5     6    1
    39     1     2    1
    40    18    19    2
    41    18    17    1
    42     2     3    1
    43   134   135    1
    44   134   131    1
    45    17    14    1
    46    34    31   am
    47     6     8   ar
    48     6     7   ar
    49   135   136    1
    50    32    31    2
    51     3     4    2
    52    92    91    2
    53    31    30    1
    54    96    95   ar
    55   136   130    1
    56   131   130    1
    57   131   132    1
    58    14    13    1
    59    14    15    1
    60    88    86   ar
    61    88    87   ar
    62   133   132    2
    63   130   120   am
    64    13    11   am
    65    91    90    1
    66   144   142   am
    67   132   137   am
    68    30    29    1
    69    30    33    1
    70    86    84   ar
    71    90    93    1
    72    90    89    1
    73    95    94    1
    74    95    97   ar
    75    93    94    1
    76    87    85   ar
    77    15    16    2
    78    15    21   am
    79    82    81    2
    80   120   119    1
    81   120   121    2
    82    29    23   am
    83   143   142    2
    84   142   141    1
    85    11    10    1
    86    11    12    2
    87    21    22    1
    88   119   118    1
    89   119   122    1
    90   137   138    1
    91    10     9    1
    92   126   124   ar
    93   126   128   ar
    94    89    81   am
    95   124   123   ar
    96    81    80    1
    97    84    85   ar
    98    84    83    1
    99    23    24    2
   100    23    22    1
   101   129   128    1
   102   128   127   ar
   103   123   122    1
   104   123   125   ar
   105   138   141    1
   106   138   139    1
   107    22    25    1
   108   127   125   ar
   109    83    80    1
   110    80    79    1
   111    25    26    1
   112   139   140    2
   113   139   145   am
   114    26    28    1
   115    26    27    1
   116    75    74    2
   117   145   146    1
   118    77    76    1
   119    74    73    1
   120   146   149    1
   121   146   147    1
   122    76    73    1
   123    76    78    1
   124   149   150    1
   125    73    72    1
   126    70    69    1
   127   147   148    2
   128    64    63    2
   129    71    69    1
   130    60    59    1
   131   150   151   ar
   132   150   152   ar
   133    72    63   am
   134    59    58   ar
   135    59    57   ar
   136    58    56   ar
   137    69    68    2
   138   151   153   ar
   139    63    62    1
   140    57    55   ar
   141    56    54   ar
   142    55    54   ar
   143    54    53    1
   144   152   154   ar
   145   153   155   ar
   146    68    67    1
   147    53    50    1
   148    62    65    1
   149    62    61    1
   150    66    67    1
   151    66    65    1
   152   154   155   ar
   153   155   156    1
   154    50    51    1
   155    50    49    1
   156    51    52    2
