@<TRIPOS>MOLECULE
tmp/1fboA00.pdb
 160 156 0 0 0
SMALL
GASTEIGER

@<TRIPOS>ATOM
      1  N         82.8320   93.3980   56.1630 N.3    36  HIS36      -0.1241
      2  CA        82.3170   93.5390   54.8090 C.3    36  HIS36       0.1621
      3  C         83.0630   94.7130   54.1700 C.2    36  HIS36       0.2264
      4  O         83.4240   94.6750   52.9940 O.2    36  HIS36      -0.2867
      5  CB        80.8190   93.8500   54.8320 C.3    36  HIS36       0.0745
      6  CG        80.2470   94.1450   53.4810 C.ar   36  HIS36       0.0817
      7  ND1       79.9910   93.1600   52.5490 N.ar   36  HIS36      -0.2268
      8  CD2       79.9380   95.3210   52.8800 C.ar   36  HIS36       0.1154
      9  CE1       79.5530   93.7160   51.4320 C.ar   36  HIS36       0.1986
     10  NE2       79.5130   95.0270   51.6070 N.ar   36  HIS36      -0.2212
     11  N         73.7740   97.4710   51.6030 N.3    44  GLU44      -0.1231
     12  CA        73.6290   96.9810   50.2270 C.3    44  GLU44       0.1699
     13  C         73.2260   95.4990   50.1380 C.2    44  GLU44       0.2592
     14  O         72.4570   95.1130   49.2600 O.2    44  GLU44      -0.2718
     15  CB        74.9100   97.2360   49.4240 C.3    44  GLU44       0.0402
     16  CG        76.1910   96.7200   50.0510 C.3    44  GLU44       0.1161
     17  CD        77.4170   97.1780   49.2840 C.2    44  GLU44       0.3649
     18  OE1       77.4330   98.3480   48.8490 O.co2  44  GLU44      -0.2457
     19  OE2       78.3660   96.3810   49.1250 O.co2  44  GLU44      -0.2457
     20  N         73.7680   94.6740   51.0250 N.am   45  ALA45      -0.1966
     21  CA        73.4270   93.2520   51.1050 C.3    45  ALA45       0.1713
     22  C         73.3040   93.1700   52.6230 C.2    45  ALA45       0.2458
     23  O         72.2250   92.8960   53.1470 O.2    45  ALA45      -0.2730
     24  CB        74.5550   92.3750   50.5650 C.3    45  ALA45       0.0333
     25  N         74.4190   93.3720   53.3520 N.am   46  PRO46      -0.2727
     26  CA        74.2570   93.3320   54.8060 C.3    46  PRO46       0.1402
     27  C         73.8390   94.7930   55.0740 C.2    46  PRO46       0.2269
     28  O         73.9450   95.6240   54.1670 O.2    46  PRO46      -0.2865
     29  CB        75.6650   93.0060   55.3000 C.3    46  PRO46       0.0296
     30  CG        76.5400   93.6550   54.2790 C.3    46  PRO46       0.0237
     31  CD        75.8480   93.2880   52.9880 C.3    46  PRO46       0.0939
     32  N         80.1800   88.2770   56.2230 N.3    53  THR53      -0.1218
     33  CA        79.4290   87.2530   55.5030 C.3    53  THR53       0.1862
     34  C         80.3140   86.0700   55.1270 C.2    53  THR53       0.2287
     35  O         81.5400   86.1950   55.0780 O.2    53  THR53      -0.2866
     36  CB        78.8610   87.8010   54.1980 C.3    53  THR53       0.1770
     37  OG1       79.9420   88.2760   53.3870 O.3    53  THR53      -0.2211
     38  CG2       77.8750   88.9310   54.4630 C.3    53  THR53       0.0375
     39  N         80.6070   85.0350   52.3990 N.3    55  GLU55      -0.1245
     40  CA        81.1770   85.4780   51.1330 C.3    55  GLU55       0.1567
     41  C         82.5490   86.1100   51.3850 C.2    55  GLU55       0.2260
     42  O         83.4880   85.9100   50.6140 O.2    55  GLU55      -0.2867
     43  CB        80.2410   86.5010   50.4930 C.3    55  GLU55       0.0388
     44  CG        80.8560   87.3860   49.4290 C.3    55  GLU55       0.1160
     45  CD        79.8770   88.4430   48.9590 C.2    55  GLU55       0.3649
     46  OE1       78.9040   88.0890   48.2520 O.co2  55  GLU55      -0.2457
     47  OE2       80.0700   89.6260   49.3140 O.co2  55  GLU55      -0.2457
     48  N         66.4090   95.3380   44.8140 N.3   406  PRO406     -0.2102
     49  CA        66.3400   95.3720   43.3470 C.3   406  PRO406      0.1504
     50  C         66.3890   93.9640   42.7410 C.2   406  PRO406      0.2576
     51  O         66.7100   92.9990   43.4320 O.2   406  PRO406     -0.2718
     52  CB        67.5720   96.1870   42.9750 C.3   406  PRO406      0.0282
     53  CG        68.5760   95.6810   43.9700 C.3   406  PRO406      0.0208
     54  CD        67.7720   95.6790   45.2730 C.3   406  PRO406      0.0893
     55  N         66.0800   93.8550   41.4530 N.am  407  GLY407     -0.1943
     56  CA        66.1100   92.5590   40.7990 C.3   407  GLY407      0.2014
     57  C         67.4650   91.9010   40.9610 C.2   407  GLY407      0.2639
     58  O         68.4880   92.4970   40.6180 O.2   407  GLY407     -0.2714
     59  N         67.4710   90.6730   41.4780 N.am  408  SER408     -0.1949
     60  CA        68.7090   89.9220   41.7080 C.3   408  SER408      0.1924
     61  C         69.5930   89.7660   40.4740 C.2   408  SER408      0.2314
     62  O         70.7830   89.4770   40.5990 O.2   408  SER408     -0.2863
     63  CB        68.3990   88.5310   42.2630 C.3   408  SER408      0.2116
     64  OG        67.7340   87.7370   41.2940 O.3   408  SER408     -0.2180
     65  N         69.9480   92.2510   38.0080 N.3   410  THR410     -0.1203
     66  CA        70.1120   93.5590   37.3690 C.3   410  THR410      0.1994
     67  C         71.5190   94.0930   37.7010 C.2   410  THR410      0.2617
     68  O         71.9470   95.1080   37.1660 O.2   410  THR410     -0.2717
     69  CB        69.0530   94.6030   37.8490 C.3   410  THR410      0.1784
     70  OG1       69.1510   94.7850   39.2670 O.3   410  THR410     -0.2211
     71  CG2       67.6430   94.1440   37.4890 C.3   410  THR410      0.0376
     72  N         72.2210   93.4010   38.5970 N.am  411  TRP411     -0.1975
     73  CA        73.5830   93.7660   39.0030 C.3   411  TRP411      0.1640
     74  C         74.5670   93.0220   38.0990 C.2   411  TRP411      0.2290
     75  O         74.5720   91.7910   38.0610 O.2   411  TRP411     -0.2864
     76  CB        73.8300   93.3620   40.4640 C.3   411  TRP411      0.0576
     77  CG        75.2210   93.6770   40.9720 C.ar  411  TRP411      0.0006
     78  CD1       75.8320   94.8970   40.9740 C.ar  411  TRP411      0.0946
     79  CD2       76.1530   92.7620   41.5760 C.ar  411  TRP411      0.0152
     80  NE1       77.0830   94.8020   41.5410 N.ar  411  TRP411     -0.2442
     81  CE2       77.3050   93.5040   41.9200 C.ar  411  TRP411      0.0810
     82  CE3       76.1240   91.3890   41.8600 C.ar  411  TRP411      0.0012
     83  CZ2       78.4230   92.9180   42.5360 C.ar  411  TRP411      0.0191
     84  CZ3       77.2340   90.8050   42.4710 C.ar  411  TRP411      0.0001
     85  CH2       78.3690   91.5720   42.8020 C.ar  411  TRP411      0.0015
     86  N         76.9480   89.5970   38.9660 N.3   414  MET414     -0.1245
     87  CA        76.6360   88.1750   38.8460 C.3   414  MET414      0.1570
     88  C         77.2360   87.6040   37.5620 C.2   414  MET414      0.2261
     89  O         77.5720   86.4280   37.5020 O.2   414  MET414     -0.2867
     90  CB        75.1170   87.9500   38.8660 C.3   414  MET414      0.0387
     91  CG        74.4570   88.2570   40.2100 C.3   414  MET414      0.0595
     92  SD        75.0040   87.1460   41.5390 S.3   414  MET414     -0.1393
     93  CE        73.8580   87.5740   42.8240 C.3   414  MET414      0.0692
     94  N         81.2810   87.1190   38.4020 N.3   417  TRP417     -0.1241
     95  CA        81.5040   86.1710   39.4900 C.3   417  TRP417      0.1605
     96  C         81.2660   84.7300   39.0280 C.2   417  TRP417      0.2264
     97  O         82.0770   83.8430   39.2810 O.2   417  TRP417     -0.2867
     98  CB        80.5680   86.4620   40.6630 C.3   417  TRP417      0.0550
     99  CG        81.0750   87.4780   41.6230 C.ar  417  TRP417      0.0003
    100  CD1       82.2060   88.2330   41.5040 C.ar  417  TRP417      0.0946
    101  CD2       80.4630   87.8590   42.8570 C.ar  417  TRP417      0.0152
    102  NE1       82.3360   89.0630   42.5900 N.ar  417  TRP417     -0.2442
    103  CE2       81.2790   88.8540   43.4370 C.ar  417  TRP417      0.0810
    104  CE3       79.3030   87.4540   43.5310 C.ar  417  TRP417      0.0012
    105  CZ2       80.9720   89.4540   44.6640 C.ar  417  TRP417      0.0191
    106  CZ3       78.9980   88.0510   44.7510 C.ar  417  TRP417      0.0001
    107  CH2       79.8320   89.0400   45.3030 C.ar  417  TRP417      0.0015
    108  N         82.7870  100.0990   39.0940 N.3   494  ASP494     -0.1239
    109  CA        82.8000   99.2500   40.2790 C.3   494  ASP494      0.1674
    110  C         84.0960   98.4370   40.2260 C.2   494  ASP494      0.2266
    111  O         84.2280   97.5040   39.4290 O.2   494  ASP494     -0.2867
    112  CB        81.5820   98.3200   40.2770 C.3   494  ASP494      0.1410
    113  CG        81.4910   97.4660   41.5350 C.2   494  ASP494      0.3668
    114  OD1       82.4680   96.7490   41.8540 O.co2 494  ASP494     -0.2456
    115  OD2       80.4380   97.5100   42.2050 O.co2 494  ASP494     -0.2456
    116  N         81.5980  106.7930   44.6230 N.3   542  GLU542     -0.1245
    117  CA        80.4110  106.2340   43.9940 C.3   542  GLU542      0.1567
    118  C         79.1720  106.8150   44.6600 C.2   542  GLU542      0.2260
    119  O         79.2200  107.2360   45.8200 O.2   542  GLU542     -0.2867
    120  CB        80.4010  104.7030   44.1080 C.3   542  GLU542      0.0388
    121  CG        80.0570  104.1590   45.4850 C.3   542  GLU542      0.1160
    122  CD        80.1290  102.6410   45.5450 C.2   542  GLU542      0.3649
    123  OE1       81.2550  102.0930   45.5770 O.co2 542  GLU542     -0.2457
    124  OE2       79.0590  101.9920   45.5500 O.co2 542  GLU542     -0.2457
    125  N         75.3600  106.6460   46.2350 N.3   544  ARG544     -0.1245
    126  CA        74.5210  105.7120   46.9860 C.3   544  ARG544      0.1563
    127  C         73.0660  106.1670   46.8090 C.2   544  ARG544      0.2260
    128  O         72.4760  106.7930   47.6960 O.2   544  ARG544     -0.2867
    129  CB        74.9200  105.7330   48.4640 C.3   544  ARG544      0.0307
    130  CG        76.4340  105.7010   48.6810 C.3   544  ARG544      0.0489
    131  CD        77.0440  104.4110   48.1550 C.3   544  ARG544      0.2205
    132  NE        76.8400  103.3100   49.0900 N.pl3 544  ARG544     -0.0865
    133  CZ        76.7080  102.0320   48.7420 C.cat 544  ARG544      0.5346
    134  NH1       76.7520  101.6750   47.4630 N.pl3 544  ARG544      0.1354
    135  NH2       76.5400  101.1070   49.6770 N.pl3 544  ARG544      0.1354
    136  N         85.4040   97.7710   50.1740 N.3   609  ARG609     -0.1245
    137  CA        84.7600   96.4850   50.4220 C.3   609  ARG609      0.1563
    138  C         85.8120   95.3770   50.4030 C.2   609  ARG609      0.2260
    139  O         86.5480   95.2320   49.4220 O.2   609  ARG609     -0.2867
    140  CB        83.7060   96.2010   49.3480 C.3   609  ARG609      0.0307
    141  CG        82.6090   97.2480   49.2170 C.3   609  ARG609      0.0489
    142  CD        81.6050   96.8260   48.1470 C.3   609  ARG609      0.2205
    143  NE        80.4840   97.7580   48.0030 N.pl3 609  ARG609     -0.0865
    144  CZ        80.5440   98.9210   47.3580 C.cat 609  ARG609      0.5346
    145  NH1       81.6780   99.3160   46.7830 N.pl3 609  ARG609      0.1354
    146  NH2       79.4670   99.6870   47.2820 N.pl3 609  ARG609      0.1354
    147  N         85.7640   92.1130   49.8870 N.3   611  TRP611     -0.1241
    148  CA        85.7800   91.2210   48.7350 C.3   611  TRP611      0.1605
    149  C         86.3230   91.9100   47.4920 C.2   611  TRP611      0.2264
    150  O         87.0190   91.2830   46.6940 O.2   611  TRP611     -0.2867
    151  CB        84.3880   90.6380   48.4440 C.3   611  TRP611      0.0550
    152  CG        83.3860   91.5900   47.8570 C.ar  611  TRP611      0.0003
    153  CD1       82.4070   92.2710   48.5300 C.ar  611  TRP611      0.0946
    154  CD2       83.2100   91.9060   46.4690 C.ar  611  TRP611      0.0152
    155  NE1       81.6320   92.9800   47.6470 N.ar  611  TRP611     -0.2442
    156  CE2       82.1000   92.7740   46.3760 C.ar  611  TRP611      0.0810
    157  CE3       83.8790   91.5370   45.2950 C.ar  611  TRP611      0.0012
    158  CZ2       81.6420   93.2790   45.1520 C.ar  611  TRP611      0.0191
    159  CZ3       83.4210   92.0430   44.0710 C.ar  611  TRP611      0.0001
    160  CH2       82.3140   92.9020   44.0150 C.ar  611  TRP611      0.0015
@<TRIPOS>BOND
     1    68    67    2
     2    66    67    1
     3    66    69    1
     4    66    65    1
     5    71    69    1
     6    89    88    2
     7    88    87    1
     8    67    72   am
     9    69    70    1
    10    75    74    2
    11    74    73    1
    12    94    95    1
    13    72    73    1
    14    87    90    1
    15    87    86    1
    16    90    91    1
    17    73    76    1
    18    96    97    2
    19    96    95    1
    20   108   109    1
    21   111   110    2
    22    95    98    1
    23    91    92    1
    24   110   109    1
    25   112   109    1
    26   112   113    1
    27    76    77    1
    28    61    62    2
    29    61    60    1
    30    58    57    2
    31    98    99    1
    32    56    57    1
    33    56    55    1
    34    57    59   am
    35    77    78   ar
    36    77    79   ar
    37    78    80   ar
    38    64    63    1
    39    55    50   am
    40    59    60    1
    41   100    99   ar
    42   100   102   ar
    43   113   114   ar
    44   113   115   ar
    45    92    93    1
    46    80    81   ar
    47    79    82   ar
    48    79    81   ar
    49    99   101   ar
    50    60    63    1
    51    82    84   ar
    52    81    83   ar
    53    84    85   ar
    54    83    85   ar
    55   102   103   ar
    56    50    49    1
    57    50    51    2
    58   101   103   ar
    59   101   104   ar
    60    52    49    1
    61    52    53    1
    62    49    48    1
    63   103   105   ar
    64   104   106   ar
    65    53    54    1
    66   117   120    1
    67   117   116    1
    68   117   118    1
    69   160   159   ar
    70   160   158   ar
    71   159   157   ar
    72   120   121    1
    73   118   119    2
    74   105   107   ar
    75   106   107   ar
    76    48    54    1
    77   158   156   ar
    78   157   154   ar
    79   121   122    1
    80   122   124   ar
    81   122   123   ar
    82   125   126    1
    83   156   154   ar
    84   156   155   ar
    85   154   152   ar
    86   150   149    2
    87   145   144    1
    88   127   126    1
    89   127   128    2
    90   126   129    1
    91   146   144    1
    92   144   143    2
    93   134   133    1
    94   149   148    1
    95   155   153   ar
    96   152   151    1
    97   152   153   ar
    98   143   142    1
    99   142   141    1
   100   131   130    1
   101   131   132    1
   102    46    45   ar
   103   151   148    1
   104   129   130    1
   105   148   147    1
   106   133   132    2
   107   133   135    1
   108    18    17   ar
   109    45    47   ar
   110    45    44    1
   111    19    17   ar
   112   141   140    1
   113    14    13    2
   114    17    16    1
   115   140   137    1
   116   139   138    2
   117    15    16    1
   118    15    12    1
   119    44    43    1
   120    13    12    1
   121    13    20   am
   122   136   137    1
   123    12    11    1
   124   138   137    1
   125    43    40    1
   126    24    21    1
   127    42    41    2
   128    20    21    1
   129    21    22    1
   130    40    41    1
   131    40    39    1
   132     9    10   ar
   133     9     7   ar
   134    10     8   ar
   135     7     6   ar
   136    22    23    2
   137    22    25   am
   138     8     6   ar
   139    31    25    1
   140    31    30    1
   141     4     3    2
   142    25    26    1
   143    37    36    1
   144     6     5    1
   145    28    27    2
   146     3     2    1
   147    36    38    1
   148    36    33    1
   149    30    29    1
   150    26    27    1
   151    26    29    1
   152     2     5    1
   153     2     1    1
   154    35    34    2
   155    34    33    1
   156    33    32    1
