@<TRIPOS>MOLECULE
tmp/1fbwA01.pdb
 177 172 0 0 0
SMALL
GASTEIGER

@<TRIPOS>ATOM
      1  N         82.7700   93.4430   56.2560 N.3    36  HIS36      -0.1241
      2  CA        82.2570   93.6110   54.9020 C.3    36  HIS36       0.1621
      3  C         82.9840   94.8120   54.2760 C.2    36  HIS36       0.2264
      4  O         83.3710   94.7790   53.1170 O.2    36  HIS36      -0.2867
      5  CB        80.7520   93.8540   54.9160 C.3    36  HIS36       0.0745
      6  CG        80.1800   94.1910   53.5700 C.ar   36  HIS36       0.0817
      7  ND1       79.8840   93.2380   52.6220 N.ar   36  HIS36      -0.2268
      8  CD2       79.8430   95.3840   53.0200 C.ar   36  HIS36       0.1154
      9  CE1       79.3900   93.8240   51.5450 C.ar   36  HIS36       0.1986
     10  NE2       79.3500   95.1230   51.7640 N.ar   36  HIS36      -0.2212
     11  N         73.4750   97.5270   51.6160 N.3    44  GLU44      -0.1231
     12  CA        73.3400   97.0740   50.2310 C.3    44  GLU44       0.1699
     13  C         72.9070   95.5950   50.1150 C.2    44  GLU44       0.2592
     14  O         72.2230   95.2370   49.1700 O.2    44  GLU44      -0.2718
     15  CB        74.6200   97.3580   49.4220 C.3    44  GLU44       0.0402
     16  CG        75.8820   96.7000   49.9590 C.3    44  GLU44       0.1161
     17  CD        77.1470   97.3020   49.3760 C.2    44  GLU44       0.3649
     18  OE1       77.0900   98.4460   48.8960 O.co2  44  GLU44      -0.2457
     19  OE2       78.2080   96.6410   49.3940 O.co2  44  GLU44      -0.2457
     20  N         73.4060   94.7450   51.0050 N.am   45  ALA45      -0.1966
     21  CA        73.0520   93.3100   51.0950 C.3    45  ALA45       0.1713
     22  C         73.1130   93.2710   52.6330 C.2    45  ALA45       0.2458
     23  O         72.0850   93.0260   53.2630 O.2    45  ALA45      -0.2730
     24  CB        74.0830   92.4070   50.4190 C.3    45  ALA45       0.0333
     25  N         74.3230   93.3580   53.2490 N.am   46  PRO46      -0.2727
     26  CA        74.2480   93.4000   54.7150 C.3    46  PRO46       0.1402
     27  C         73.7800   94.8700   54.9810 C.2    46  PRO46       0.2269
     28  O         73.7990   95.7030   54.0520 O.2    46  PRO46      -0.2865
     29  CB        75.7030   93.1700   55.1530 C.3    46  PRO46       0.0296
     30  CG        76.5150   93.5940   53.9850 C.3    46  PRO46       0.0237
     31  CD        75.7150   93.1090   52.8170 C.3    46  PRO46       0.0939
     32  N         80.4930   88.2860   56.3930 N.3    53  THR53      -0.1218
     33  CA        79.5960   87.4080   55.6450 C.3    53  THR53       0.1862
     34  C         80.3910   86.1810   55.2350 C.2    53  THR53       0.2287
     35  O         81.6270   86.2060   55.2930 O.2    53  THR53      -0.2866
     36  CB        79.1020   88.0900   54.3600 C.3    53  THR53       0.1770
     37  OG1       80.2400   88.4330   53.5650 O.3    53  THR53      -0.2211
     38  CG2       78.3030   89.3570   54.6670 C.3    53  THR53       0.0375
     39  N         80.6110   85.2350   52.3960 N.3    55  GLN55      -0.1245
     40  CA        81.2010   85.7020   51.1460 C.3    55  GLN55       0.1566
     41  C         82.5880   86.2790   51.4300 C.2    55  GLN55       0.2260
     42  O         83.5670   85.9260   50.7700 O.2    55  GLN55      -0.2867
     43  CB        80.2960   86.7630   50.5310 C.3    55  GLN55       0.0367
     44  CG        80.9340   87.5600   49.4280 C.3    55  GLN55       0.0905
     45  CD        80.0190   88.6470   48.9680 C.2    55  GLN55       0.2608
     46  OE1       79.9100   89.7040   49.6070 O.2    55  GLN55      -0.2717
     47  NE2       79.2880   88.3760   47.8890 N.am   55  GLN55      -0.0878
     48  N         66.1180   95.3290   44.8130 N.3   406  PRO406     -0.2116
     49  CA        65.9350   95.4830   43.3700 C.3   406  PRO406      0.1372
     50  C         66.0330   94.0930   42.7350 C.2   406  PRO406      0.2244
     51  O         66.3090   93.1140   43.4410 O.2   406  PRO406     -0.2868
     52  CB        67.1260   96.3540   42.9880 C.3   406  PRO406      0.0268
     53  CG        68.2030   95.8260   43.8790 C.3   406  PRO406      0.0207
     54  CD        67.5000   95.6510   45.2100 C.3   406  PRO406      0.0892
     55  N         71.9150   93.6120   38.3050 N.3   411  TRP411     -0.1241
     56  CA        73.2660   94.0380   38.6530 C.3   411  TRP411      0.1605
     57  C         74.2620   93.2300   37.8120 C.2   411  TRP411      0.2264
     58  O         74.2010   91.9960   37.7870 O.2   411  TRP411     -0.2867
     59  CB        73.5300   93.7950   40.1490 C.3   411  TRP411      0.0550
     60  CG        74.9300   94.1470   40.6290 C.ar  411  TRP411      0.0003
     61  CD1       75.5730   95.3570   40.5060 C.ar  411  TRP411      0.0946
     62  CD2       75.8260   93.2940   41.3660 C.ar  411  TRP411      0.0152
     63  NE1       76.8040   95.3030   41.1300 N.ar  411  TRP411     -0.2442
     64  CE2       76.9800   94.0550   41.6640 C.ar  411  TRP411      0.0810
     65  CE3       75.7550   91.9610   41.8000 C.ar  411  TRP411      0.0012
     66  CZ2       78.0610   93.5250   42.3820 C.ar  411  TRP411      0.0191
     67  CZ3       76.8310   91.4300   42.5160 C.ar  411  TRP411      0.0001
     68  CH2       77.9690   92.2170   42.8000 C.ar  411  TRP411      0.0015
     69  N         76.8050   89.8050   38.9560 N.3   414  MET414     -0.1245
     70  CA        76.5470   88.3650   38.8660 C.3   414  MET414      0.1570
     71  C         77.1790   87.7470   37.6240 C.2   414  MET414      0.2261
     72  O         77.6200   86.5920   37.6620 O.2   414  MET414     -0.2867
     73  CB        75.0460   88.0710   38.8980 C.3   414  MET414      0.0387
     74  CG        74.3820   88.3810   40.2430 C.3   414  MET414      0.0595
     75  SD        74.9370   87.2670   41.5810 S.3   414  MET414     -0.1393
     76  CE        73.9400   87.9040   42.8720 C.3   414  MET414      0.0692
     77  N         81.1250   87.2530   38.4280 N.3   417  TRP417     -0.1241
     78  CA        81.3700   86.3120   39.5070 C.3   417  TRP417      0.1605
     79  C         81.1720   84.8810   39.0280 C.2   417  TRP417      0.2264
     80  O         82.0010   84.0090   39.2630 O.2   417  TRP417     -0.2867
     81  CB        80.3980   86.5640   40.6640 C.3   417  TRP417      0.0550
     82  CG        80.8600   87.6230   41.5820 C.ar  417  TRP417      0.0003
     83  CD1       82.0810   88.2210   41.5790 C.ar  417  TRP417      0.0946
     84  CD2       80.1320   88.1780   42.6710 C.ar  417  TRP417      0.0152
     85  NE1       82.1740   89.1200   42.6180 N.ar  417  TRP417     -0.2442
     86  CE2       80.9860   89.1170   43.3160 C.ar  417  TRP417      0.0810
     87  CE3       78.8440   87.9950   43.1940 C.ar  417  TRP417      0.0012
     88  CZ2       80.6040   89.8480   44.4400 C.ar  417  TRP417      0.0191
     89  CZ3       78.4510   88.7300   44.3110 C.ar  417  TRP417      0.0001
     90  CH2       79.3370   89.6460   44.9220 C.ar  417  TRP417      0.0015
     91  N         76.7790   98.5830   34.5320 N.3   461  SER461     -0.1202
     92  CA        76.4590   98.6760   35.9450 C.3   461  SER461      0.2020
     93  C         75.0870   98.0490   36.1750 C.2   461  SER461      0.2619
     94  O         74.9700   97.0370   36.8550 O.2   461  SER461     -0.2717
     95  CB        76.4730  100.1350   36.3860 C.3   461  SER461      0.2103
     96  OG        76.1050  100.2310   37.7390 O.3   461  SER461     -0.2182
     97  N         74.0580   98.6440   35.5850 N.am  462  THR462     -0.1952
     98  CA        72.7010   98.1210   35.6980 C.3   462  THR462      0.1897
     99  C         72.2920   97.5670   34.3290 C.2   462  THR462      0.2313
    100  O         72.6140   98.1670   33.3030 O.2   462  THR462     -0.2863
    101  CB        71.7350   99.2390   36.1230 C.3   462  THR462      0.1794
    102  OG1       72.0690   99.6580   37.4540 O.3   462  THR462     -0.2208
    103  CG2       70.3030   98.7650   36.1010 C.3   462  THR462      0.0378
    104  N         72.8480  101.4250   32.2590 N.3   490  ASN490     -0.1240
    105  CA        73.8480  102.4440   32.5400 C.3   490  ASN490      0.1653
    106  C         75.2000  101.8180   32.8790 C.2   490  ASN490      0.2266
    107  O         75.2960  100.6100   33.1210 O.2   490  ASN490     -0.2867
    108  CB        73.3840  103.4440   33.6020 C.3   490  ASN490      0.1155
    109  CG        72.9130  102.7780   34.8520 C.2   490  ASN490      0.2627
    110  OD1       73.6110  101.9320   35.4050 O.2   490  ASN490     -0.2716
    111  ND2       71.7140  103.1390   35.3090 N.am  490  ASN490     -0.0877
    112  N         82.4880  100.1600   39.0140 N.3   494  ASP494     -0.1239
    113  CA        82.5440   99.3310   40.2130 C.3   494  ASP494      0.1674
    114  C         83.8800   98.5700   40.1650 C.2   494  ASP494      0.2266
    115  O         84.0890   97.7160   39.2900 O.2   494  ASP494     -0.2867
    116  CB        81.3430   98.3810   40.2430 C.3   494  ASP494      0.1410
    117  CG        81.2640   97.5830   41.5380 C.2   494  ASP494      0.3668
    118  OD1       82.2640   96.9580   41.9380 O.co2 494  ASP494     -0.2456
    119  OD2       80.1910   97.5940   42.1650 O.co2 494  ASP494     -0.2456
    120  N         81.4980  106.9410   44.8030 N.3   542  GLU542     -0.1231
    121  CA        80.3210  106.3820   44.1860 C.3   542  GLU542      0.1699
    122  C         79.0610  106.9460   44.8130 C.2   542  GLU542      0.2592
    123  O         79.0660  107.3340   45.9760 O.2   542  GLU542     -0.2718
    124  CB        80.3300  104.8580   44.2940 C.3   542  GLU542      0.0402
    125  CG        79.8750  104.2960   45.6200 C.3   542  GLU542      0.1161
    126  CD        79.9310  102.7780   45.6450 C.2   542  GLU542      0.3649
    127  OE1       81.0500  102.2410   45.6900 O.co2 542  GLU542     -0.2457
    128  OE2       78.8640  102.1270   45.6100 O.co2 542  GLU542     -0.2457
    129  N         78.0000  107.0280   44.0160 N.am  543  GLN543     -0.1966
    130  CA        76.7230  107.5290   44.4920 C.3   543  GLN543      0.1733
    131  C         75.9550  106.4480   45.2280 C.2   543  GLN543      0.2616
    132  O         75.9500  105.2850   44.8170 O.2   543  GLN543     -0.2715
    133  CB        75.8950  108.0620   43.3250 C.3   543  GLN543      0.0408
    134  CG        76.5050  109.3220   42.7580 C.3   543  GLN543      0.0908
    135  CD        75.6180  110.0720   41.7970 C.2   543  GLN543      0.2608
    136  OE1       75.9780  111.1750   41.3670 O.2   543  GLN543     -0.2717
    137  NE2       74.4630  109.4960   41.4380 N.am  543  GLN543     -0.0878
    138  N         75.3270  106.8310   46.3310 N.am  544  ARG544     -0.1963
    139  CA        74.5360  105.8970   47.1330 C.3   544  ARG544      0.1729
    140  C         73.0820  106.3000   46.9190 C.2   544  ARG544      0.2616
    141  O         72.4290  106.8520   47.8100 O.2   544  ARG544     -0.2715
    142  CB        74.9480  106.0090   48.5970 C.3   544  ARG544      0.0348
    143  CG        76.4650  106.0030   48.7860 C.3   544  ARG544      0.0492
    144  CD        77.0820  104.7000   48.2910 C.3   544  ARG544      0.2205
    145  NE        76.8520  103.6030   49.2250 N.pl3 544  ARG544     -0.0865
    146  CZ        76.5290  102.3660   48.8680 C.cat 544  ARG544      0.5346
    147  NH1       76.3870  102.0620   47.5890 N.pl3 544  ARG544      0.1354
    148  NH2       76.3960  101.4260   49.7890 N.pl3 544  ARG544      0.1354
    149  N         72.5880  105.9760   45.7240 N.am  545  GLY545     -0.1955
    150  CA        71.2450  106.3210   45.3120 C.3   545  GLY545      0.1869
    151  C         70.0880  105.8690   46.1730 C.2   545  GLY545      0.2309
    152  O         69.0420  106.5090   46.1480 O.2   545  GLY545     -0.2863
    153  N         85.3260   97.8660   50.2300 N.3   609  ARG609     -0.1245
    154  CA        84.6760   96.5730   50.4680 C.3   609  ARG609      0.1563
    155  C         85.7350   95.4670   50.4530 C.2   609  ARG609      0.2260
    156  O         86.5010   95.3600   49.4810 O.2   609  ARG609     -0.2867
    157  CB        83.6430   96.3040   49.3680 C.3   609  ARG609      0.0307
    158  CG        82.5280   97.3290   49.3210 C.3   609  ARG609      0.0489
    159  CD        81.5960   97.0700   48.1770 C.3   609  ARG609      0.2205
    160  NE        80.4590   97.9850   48.1660 N.pl3 609  ARG609     -0.0865
    161  CZ        80.4290   99.1550   47.5310 C.cat 609  ARG609      0.5346
    162  NH1       81.4880   99.5860   46.8450 N.pl3 609  ARG609      0.1354
    163  NH2       79.3060   99.8680   47.5400 N.pl3 609  ARG609      0.1354
    164  N         85.5720   92.2110   49.8700 N.3   611  TRP611     -0.1241
    165  CA        85.5170   91.3460   48.7130 C.3   611  TRP611      0.1605
    166  C         86.0980   92.0230   47.4630 C.2   611  TRP611      0.2264
    167  O         86.8260   91.3820   46.6980 O.2   611  TRP611     -0.2867
    168  CB        84.0850   90.8260   48.4790 C.3   611  TRP611      0.0550
    169  CG        83.1160   91.7680   47.8270 C.ar  611  TRP611      0.0003
    170  CD1       82.1360   92.4730   48.4500 C.ar  611  TRP611      0.0946
    171  CD2       82.9780   92.0450   46.4230 C.ar  611  TRP611      0.0152
    172  NE1       81.3860   93.1610   47.5340 N.ar  611  TRP611     -0.2442
    173  CE2       81.8790   92.9180   46.2720 C.ar  611  TRP611      0.0810
    174  CE3       83.6740   91.6340   45.2670 C.ar  611  TRP611      0.0012
    175  CZ2       81.4420   93.3920   45.0200 C.ar  611  TRP611      0.0191
    176  CZ3       83.2470   92.0990   44.0200 C.ar  611  TRP611      0.0001
    177  CH2       82.1370   92.9690   43.9080 C.ar  611  TRP611      0.0015
@<TRIPOS>BOND
     1   104   105    1
     2   105   106    1
     3   105   108    1
     4   106   107    2
     5   100    99    2
     6   108   109    1
     7    99    98    1
     8    91    92    1
     9   109   111   am
    10   109   110    2
    11    97    98    1
    12    97    93   am
    13    98   101    1
    14    92    93    1
    15    92    95    1
    16   103   101    1
    17   101   102    1
    18    93    94    2
    19    95    96    1
    20    71    72    2
    21    71    70    1
    22    58    57    2
    23    57    56    1
    24    55    56    1
    25    77    78    1
    26    56    59    1
    27    70    73    1
    28    70    69    1
    29    73    74    1
    30   112   113    1
    31    79    80    2
    32    79    78    1
    33   115   114    2
    34    78    81    1
    35    59    60    1
    36   114   113    1
    37   113   116    1
    38   116   117    1
    39    74    75    1
    40    61    60   ar
    41    61    63   ar
    42    60    62   ar
    43    81    82    1
    44    63    64   ar
    45    62    64   ar
    46    62    65   ar
    47   136   135    2
    48   137   135   am
    49   117   118   ar
    50   117   119   ar
    51    83    82   ar
    52    83    85   ar
    53    75    76    1
    54    82    84   ar
    55    64    66   ar
    56   135   134    1
    57    65    67   ar
    58    66    68   ar
    59    67    68   ar
    60    85    86   ar
    61    84    87   ar
    62    84    86   ar
    63    50    49    1
    64    50    51    2
    65   134   133    1
    66    52    49    1
    67    52    53    1
    68    87    89   ar
    69    86    88   ar
    70   133   130    1
    71    49    48    1
    72    53    54    1
    73   177   176   ar
    74   177   175   ar
    75   129   130    1
    76   129   122   am
    77   176   174   ar
    78   121   124    1
    79   121   120    1
    80   121   122    1
    81   124   125    1
    82    89    90   ar
    83    88    90   ar
    84   130   131    1
    85    48    54    1
    86   122   123    2
    87   132   131    2
    88   175   173   ar
    89   131   138   am
    90   174   171   ar
    91   150   149    1
    92   150   151    1
    93   128   126   ar
    94   125   126    1
    95   126   127   ar
    96   149   140   am
    97   152   151    2
    98   173   171   ar
    99   173   172   ar
   100   138   139    1
   101   171   169   ar
   102   167   166    2
   103   162   161    1
   104   140   139    1
   105   140   141    2
   106   139   142    1
   107   166   165    1
   108   161   163    1
   109   161   160    2
   110   172   170   ar
   111   147   146    1
   112   169   170   ar
   113   169   168    1
   114    47    45   am
   115   160   159    1
   116   159   158    1
   117   144   143    1
   118   144   145    1
   119   168   165    1
   120   142   143    1
   121   165   164    1
   122   146   145    2
   123   146   148    1
   124    18    17   ar
   125    45    44    1
   126    45    46    2
   127    14    13    2
   128   158   157    1
   129   157   154    1
   130    17    19   ar
   131    17    16    1
   132    15    16    1
   133    15    12    1
   134    44    43    1
   135   156   155    2
   136    13    12    1
   137    13    20   am
   138   153   154    1
   139    12    11    1
   140    24    21    1
   141   155   154    1
   142    43    40    1
   143    42    41    2
   144    20    21    1
   145    21    22    1
   146    40    41    1
   147    40    39    1
   148     9    10   ar
   149     9     7   ar
   150    10     8   ar
   151     7     6   ar
   152    22    25   am
   153    22    23    2
   154    31    25    1
   155    31    30    1
   156     8     6   ar
   157     4     3    2
   158    25    26    1
   159    37    36    1
   160     6     5    1
   161    30    29    1
   162    28    27    2
   163     3     2    1
   164    36    38    1
   165    36    33    1
   166    26    27    1
   167    26    29    1
   168     2     5    1
   169     2     1    1
   170    34    35    2
   171    34    33    1
   172    33    32    1
