@<TRIPOS>MOLECULE
tmp/1fbzA00.pdb
 142 137 0 0 0
SMALL
GASTEIGER

@<TRIPOS>ATOM
      1  N         28.4360   26.6070   20.1210 N.3    12  ARG12      -0.1245
      2  CA        28.2730   25.2610   19.5710 C.3    12  ARG12       0.1563
      3  C         29.5820   24.5360   19.7780 C.2    12  ARG12       0.2260
      4  O         29.6680   23.6210   20.5920 O.2    12  ARG12      -0.2867
      5  CB        28.0030   25.3580   18.0700 C.3    12  ARG12       0.0307
      6  CG        26.6770   24.8120   17.5850 C.3    12  ARG12       0.0489
      7  CD        26.7300   23.3080   17.4680 C.3    12  ARG12       0.2205
      8  NE        25.8850   22.8250   16.3830 N.pl3  12  ARG12      -0.0865
      9  CZ        26.3520   22.1980   15.3110 C.cat  12  ARG12       0.5346
     10  NH1       27.6540   21.9760   15.1900 N.pl3  12  ARG12       0.1354
     11  NH2       25.5280   21.8410   14.3400 N.pl3  12  ARG12       0.1354
     12  N         22.6370   24.8310   26.0280 N.3    32  ARG32      -0.1245
     13  CA        23.1950   26.1390   25.7620 C.3    32  ARG32       0.1563
     14  C         22.1780   26.9640   24.9630 C.2    32  ARG32       0.2260
     15  O         21.2590   26.4160   24.3650 O.2    32  ARG32      -0.2867
     16  CB        24.5000   25.9920   24.9890 C.3    32  ARG32       0.0307
     17  CG        24.3440   25.1930   23.7380 C.3    32  ARG32       0.0489
     18  CD        25.5470   25.2960   22.8580 C.3    32  ARG32       0.2205
     19  NE        25.3580   24.5000   21.6500 N.pl3  32  ARG32      -0.0865
     20  CZ        24.4410   24.7470   20.7200 C.cat  32  ARG32       0.5346
     21  NH1       23.6180   25.7760   20.8380 N.pl3  32  ARG32       0.1354
     22  NH2       24.3290   23.9420   19.6790 N.pl3  32  ARG32       0.1354
     23  N         22.7950   29.2220   18.9860 N.3    35  GLU35      -0.1231
     24  CA        23.8630   29.9730   18.3320 C.3    35  GLU35       0.1699
     25  C         23.4450   30.5910   17.0130 C.2    35  GLU35       0.2593
     26  O         23.3710   31.8090   16.8850 O.2    35  GLU35      -0.2718
     27  CB        25.0820   29.0780   18.1040 C.3    35  GLU35       0.0402
     28  CG        26.2200   29.7740   17.3980 C.3    35  GLU35       0.1161
     29  CD        27.4320   28.8950   17.2210 C.2    35  GLU35       0.3649
     30  OE1       27.5790   28.2950   16.1390 O.co2  35  GLU35      -0.2457
     31  OE2       28.2530   28.8230   18.1560 O.co2  35  GLU35      -0.2457
     32  N         23.1820   29.7370   16.0330 N.am   36  SER36      -0.1938
     33  CA        22.7890   30.1750   14.7020 C.3    36  SER36       0.2055
     34  C         21.6810   31.2280   14.7270 C.2    36  SER36       0.2643
     35  O         21.7110   32.1760   13.9460 O.2    36  SER36      -0.2714
     36  CB        22.3750   28.9740   13.8730 C.3    36  SER36       0.2130
     37  OG        22.8130   29.1330   12.5400 O.3    36  SER36      -0.2179
     38  N         20.6800   31.0250   15.5830 N.am   37  THR37      -0.1950
     39  CA        19.5960   31.9920   15.7490 C.3    37  THR37       0.1897
     40  C         19.6650   32.4360   17.2020 C.2    37  THR37       0.2313
     41  O         20.6560   32.1770   17.8870 O.2    37  THR37      -0.2863
     42  CB        18.1910   31.4020   15.4990 C.3    37  THR37       0.1794
     43  OG1       17.8700   30.4660   16.5400 O.3    37  THR37      -0.2208
     44  CG2       18.1040   30.7490   14.1190 C.3    37  THR37       0.0378
     45  N         19.2190   25.1330   23.0810 N.3    42  CYS42      -0.1235
     46  CA        19.7140   23.9280   22.4240 C.3    42  CYS42       0.1677
     47  C         20.3180   22.9550   23.4160 C.2    42  CYS42       0.2270
     48  O         21.0750   23.3440   24.3040 O.2    42  CYS42      -0.2867
     49  CB        20.7550   24.2860   21.3660 C.3    42  CYS42       0.0956
     50  SG        20.1050   25.2490   19.9880 S.3    42  CYS42      -0.0801
     51  N         25.6600   15.7300   19.5360 N.3    57  LYS57      -0.1231
     52  CA        24.5410   16.0830   18.6800 C.3    57  LYS57       0.1693
     53  C         23.7530   17.1540   19.3790 C.2    57  LYS57       0.2592
     54  O         23.7280   17.2150   20.6000 O.2    57  LYS57      -0.2718
     55  CB        23.6630   14.8660   18.4020 C.3    57  LYS57       0.0285
     56  CG        24.3070   13.8680   17.4720 C.3    57  LYS57       0.0035
     57  CD        23.6300   12.5330   17.5900 C.3    57  LYS57       0.0206
     58  CE        24.4030   11.4710   16.8350 C.3    57  LYS57       0.1093
     59  NZ        23.8260   10.1250   17.0920 N.3    57  LYS57      -0.1314
     60  N         23.0910   17.9860   18.5920 N.am   58  HIS58      -0.1962
     61  CA        22.3250   19.0930   19.1350 C.3    58  HIS58       0.1787
     62  C         20.8540   19.0040   18.7880 C.2    58  HIS58       0.2620
     63  O         20.4840   18.7690   17.6230 O.2    58  HIS58      -0.2715
     64  CB        22.9070   20.4210   18.6310 C.3    58  HIS58       0.0785
     65  CG        24.3900   20.5200   18.7960 C.ar   58  HIS58       0.0821
     66  ND1       24.9790   20.9130   19.9780 N.ar   58  HIS58      -0.2267
     67  CD2       25.4040   20.1840   17.9640 C.ar   58  HIS58       0.1154
     68  CE1       26.2900   20.8020   19.8740 C.ar   58  HIS58       0.1986
     69  NE2       26.5740   20.3620   18.6600 N.ar   58  HIS58      -0.2212
     70  N         20.0340   19.1930   19.8240 N.am   59  TYR59      -0.1960
     71  CA        18.5820   19.1720   19.7250 C.3    59  TYR59       0.1771
     72  C         18.0210   20.5720   20.0130 C.2    59  TYR59       0.2619
     73  O         18.3110   21.1660   21.0510 O.2    59  TYR59      -0.2715
     74  CB        18.0070   18.1350   20.6960 C.3    59  TYR59       0.0574
     75  CG        18.0600   16.7380   20.1440 C.ar   59  TYR59      -0.0198
     76  CD1       19.2130   15.9750   20.2440 C.ar   59  TYR59      -0.0009
     77  CD2       16.9690   16.1980   19.4640 C.ar   59  TYR59      -0.0009
     78  CE1       19.2880   14.7000   19.6600 C.ar   59  TYR59       0.0417
     79  CE2       17.0270   14.9300   18.8810 C.ar   59  TYR59       0.0417
     80  CZ        18.1890   14.1810   18.9790 C.ar   59  TYR59       0.1957
     81  OH        18.2610   12.9240   18.3870 O.3    59  TYR59      -0.2866
     82  N         17.2450   21.0970   19.0680 N.am   60  LYS60      -0.1977
     83  CA        16.6460   22.4170   19.1800 C.3    60  LYS60       0.1596
     84  C         15.4410   22.4170   20.1170 C.2    60  LYS60       0.2287
     85  O         14.4520   21.7150   19.8760 O.2    60  LYS60      -0.2864
     86  CB        16.2300   22.9140   17.7860 C.3    60  LYS60       0.0298
     87  CG        16.0030   24.4260   17.6580 C.3    60  LYS60       0.0038
     88  CD        17.3180   25.2060   17.6230 C.3    60  LYS60       0.0206
     89  CE        17.0910   26.6840   17.3260 C.3    60  LYS60       0.1093
     90  NZ        18.3720   27.3790   17.0140 N.3    60  LYS60      -0.1314
     91  N         11.2220   19.7440   22.5980 N.3    71  ILE71      -0.1231
     92  CA        12.0860   19.3440   21.4890 C.3    71  ILE71       0.1692
     93  C         11.1480   18.7260   20.4370 C.2    71  ILE71       0.2592
     94  O         11.2850   18.9760   19.2370 O.2    71  ILE71      -0.2718
     95  CB        13.1630   18.3260   21.9350 C.3    71  ILE71       0.0266
     96  CG1       14.0590   18.9540   23.0020 C.3    71  ILE71       0.0019
     97  CG2       14.0050   17.8730   20.7420 C.3    71  ILE71       0.0020
     98  CD1       15.2520   18.1090   23.3740 C.3    71  ILE71       0.0001
     99  N         10.1590   17.9690   20.9090 N.am   72  SER72      -0.1952
    100  CA         9.1740   17.3330   20.0490 C.3    72  SER72       0.1924
    101  C          7.8260   17.9050   20.4250 C.2    72  SER72       0.2314
    102  O          7.4690   17.9560   21.6070 O.2    72  SER72      -0.2863
    103  CB         9.1450   15.8250   20.2910 C.3    72  SER72       0.2116
    104  OG         7.9690   15.2410   19.7430 O.3    72  SER72      -0.2180
    105  N         13.5580   13.5260   29.5630 N.3    87  TYR87      -0.1241
    106  CA        14.5390   12.9050   28.6820 C.3    87  TYR87       0.1605
    107  C         15.6760   12.1880   29.3920 C.2    87  TYR87       0.2264
    108  O         16.4770   11.4990   28.7620 O.2    87  TYR87      -0.2867
    109  CB        15.0610   13.9150   27.6730 C.3    87  TYR87       0.0534
    110  CG        14.0220   14.2980   26.6510 C.ar   87  TYR87      -0.0201
    111  CD1       13.3310   15.4970   26.7440 C.ar   87  TYR87      -0.0009
    112  CD2       13.7350   13.4600   25.5800 C.ar   87  TYR87      -0.0009
    113  CE1       12.3820   15.8530   25.7920 C.ar   87  TYR87       0.0417
    114  CE2       12.7860   13.8100   24.6220 C.ar   87  TYR87       0.0417
    115  CZ        12.1130   15.0110   24.7330 C.ar   87  TYR87       0.1957
    116  OH        11.1940   15.3730   23.7650 O.3    87  TYR87      -0.2866
    117  N         13.0080    8.7240   24.6320 N.3    92  ASP92      -0.1225
    118  CA        11.7180    9.1380   24.0680 C.3    92  ASP92       0.1805
    119  C         11.8290    9.6680   22.6360 C.2    92  ASP92       0.2598
    120  O         11.0930   10.5650   22.2350 O.2    92  ASP92      -0.2718
    121  CB        11.0560   10.1850   24.9850 C.3    92  ASP92       0.1424
    122  CG         9.6350   10.5460   24.5560 C.2    92  ASP92       0.3668
    123  OD1        9.4410   11.5990   23.9070 O.co2  92  ASP92      -0.2456
    124  OD2        8.7040    9.7920   24.8930 O.co2  92  ASP92      -0.2456
    125  N         12.7390    9.1020   21.8550 N.am   93  GLY93      -0.1942
    126  CA        12.8990    9.5520   20.4840 C.3    93  GLY93       0.2014
    127  C         14.2230   10.2520   20.2720 C.2    93  GLY93       0.2639
    128  O         14.5860   10.6090   19.1540 O.2    93  GLY93      -0.2714
    129  N         14.9280   10.4990   21.3670 N.am   94  LEU94      -0.1963
    130  CA        16.2250   11.1390   21.2920 C.3    94  LEU94       0.1728
    131  C         17.2030   10.0670   20.8680 C.2    94  LEU94       0.2616
    132  O         16.8920    8.8740   20.9120 O.2    94  LEU94      -0.2715
    133  CB        16.6350   11.6760   22.6580 C.3    94  LEU94       0.0311
    134  CG        16.8110   13.1850   22.7850 C.3    94  LEU94       0.0022
    135  CD1       15.5090   13.8990   22.4440 C.3    94  LEU94       0.0001
    136  CD2       17.2750   13.5040   24.1990 C.3    94  LEU94       0.0001
    137  N         18.3870   10.4980   20.4530 N.am   95  CYS95      -0.1968
    138  CA        19.4300    9.5730   20.0360 C.3    95  CYS95       0.1712
    139  C         19.9090    8.7840   21.2500 C.2    95  CYS95       0.2296
    140  O         20.3960    7.6660   21.1210 O.2    95  CYS95      -0.2864
    141  CB        20.5880   10.3460   19.3920 C.3    95  CYS95       0.0983
    142  SG        21.2500   11.7090   20.4030 S.3    95  CYS95      -0.0798
@<TRIPOS>BOND
     1    37    36    1
     2    36    33    1
     3    35    34    2
     4    44    42    1
     5    11     9    1
     6    33    34    1
     7    33    32    1
     8    34    38   am
     9    10     9    1
    10     9     8    2
    11    42    39    1
    12    42    43    1
    13    38    39    1
    14    39    40    1
    15    32    25   am
    16    30    29   ar
    17     8     7    1
    18    58    59    1
    19    58    57    1
    20    26    25    2
    21    25    24    1
    22    90    89    1
    23    40    41    2
    24    29    28    1
    25    29    31   ar
    26    89    88    1
    27    28    27    1
    28     7     6    1
    29    56    57    1
    30    56    55    1
    31     6     5    1
    32    63    62    2
    33    88    87    1
    34    87    86    1
    35    86    83    1
    36    67    69   ar
    37    67    65   ar
    38     5     2    1
    39    27    24    1
    40    24    23    1
    41    81    80    1
    42    55    52    1
    43    60    61    1
    44    60    53   am
    45    64    65    1
    46    64    61    1
    47    69    68   ar
    48    52    53    1
    49    52    51    1
    50    62    61    1
    51    62    70   am
    52    65    66   ar
    53    79    80   ar
    54    79    77   ar
    55    80    78   ar
    56    82    83    1
    57    82    72   am
    58   128   127    2
    59    83    84    1
    60    94    93    2
    61    53    54    2
    62   141   138    1
    63   141   142    1
    64    77    75   ar
    65     2     3    1
    66     2     1    1
    67    78    76   ar
    68    22    20    1
    69    71    70    1
    70    71    72    1
    71    71    74    1
    72   104   103    1
    73     3     4    2
    74    68    66   ar
    75    85    84    2
    76    50    49    1
    77    72    73    2
    78   138   137    1
    79   138   139    1
    80   100   103    1
    81   100   101    1
    82   100    99    1
    83    75    76   ar
    84    75    74    1
    85   127   126    1
    86   127   129   am
    87   101   102    2
    88    93    99   am
    89    93    92    1
    90   137   131   am
    91   126   125    1
    92    20    21    1
    93    20    19    2
    94    97    95    1
    95   131   132    2
    96   131   130    1
    97   140   139    2
    98   130   129    1
    99   130   133    1
   100    49    46    1
   101    92    95    1
   102    92    91    1
   103    19    18    1
   104   125   119   am
   105    95    96    1
   106   120   119    2
   107    46    45    1
   108    46    47    1
   109   135   134    1
   110   119   118    1
   111   133   134    1
   112   134   136    1
   113    18    17    1
   114    96    98    1
   115    47    48    2
   116    17    16    1
   117   116   115    1
   118   123   122   ar
   119   118   117    1
   120   118   121    1
   121    15    14    2
   122   122   124   ar
   123   122   121    1
   124   114   115   ar
   125   114   112   ar
   126   115   113   ar
   127    14    13    1
   128    16    13    1
   129   112   110   ar
   130    13    12    1
   131   113   111   ar
   132   110   111   ar
   133   110   109    1
   134   109   106    1
   135   106   107    1
   136   106   105    1
   137   108   107    2
