@<TRIPOS>MOLECULE
tmp/1fc4B01.pdb
 144 134 0 0 0
SMALL
GASTEIGER

@<TRIPOS>ATOM
      1  N         -2.7260   47.7150   45.9220 N.3    52  ASN52      -0.1240
      2  CA        -2.3800   49.1100   45.6050 C.3    52  ASN52       0.1653
      3  C         -3.6870   49.8250   45.3200 C.2    52  ASN52       0.2266
      4  O         -3.7110   50.8720   44.6780 O.2    52  ASN52      -0.2867
      5  CB        -1.5200   49.2070   44.3470 C.3    52  ASN52       0.1155
      6  CG        -0.2830   48.3670   44.4320 C.2    52  ASN52       0.2627
      7  OD1        0.4690   48.4330   45.4040 O.2    52  ASN52      -0.2716
      8  ND2       -0.0600   47.5610   43.4090 N.am   52  ASN52      -0.0877
      9  N          2.7600   50.8600   31.1050 N.3   109  SER109     -0.1202
     10  CA         3.0350   50.6860   32.5300 C.3   109  SER109      0.2020
     11  C          4.0650   51.7230   32.9710 C.2   109  SER109      0.2619
     12  O          4.7620   52.3010   32.1370 O.2   109  SER109     -0.2717
     13  CB         3.5900   49.2840   32.8100 C.3   109  SER109      0.2103
     14  OG         4.9180   49.1500   32.3220 O.3   109  SER109     -0.2182
     15  N          4.1620   51.9690   34.2750 N.am  110  CYS110     -0.1955
     16  CA         5.1480   52.9210   34.7690 C.3   110  CYS110      0.1843
     17  C          6.5240   52.2600   34.6880 C.2   110  CYS110      0.2625
     18  O          7.5440   52.9420   34.5930 O.2   110  CYS110     -0.2714
     19  CB         4.8590   53.3370   36.2170 C.3   110  CYS110      0.0997
     20  SG         5.9070   54.7210   36.7690 S.3   110  CYS110     -0.0797
     21  N          6.5420   50.9290   34.7130 N.am  111  PHE111     -0.1974
     22  CA         7.7990   50.1900   34.6210 C.3   111  PHE111      0.1639
     23  C          8.4530   50.5790   33.2980 C.2   111  PHE111      0.2290
     24  O          9.6630   50.8000   33.2250 O.2   111  PHE111     -0.2864
     25  CB         7.5330   48.6810   34.6540 C.3   111  PHE111      0.0560
     26  CG         8.7600   47.8510   34.9070 C.ar  111  PHE111     -0.0200
     27  CD1        9.6770   47.6050   33.8860 C.ar  111  PHE111     -0.0042
     28  CD2        9.0150   47.3420   36.1750 C.ar  111  PHE111     -0.0042
     29  CE1       10.8310   46.8600   34.1300 C.ar  111  PHE111     -0.0003
     30  CE2       10.1650   46.5970   36.4330 C.ar  111  PHE111     -0.0003
     31  CZ        11.0770   46.3580   35.4070 C.ar  111  PHE111     -0.0000
     32  N         13.0520   52.0700   43.1740 N.3   135  HIS135     -0.1241
     33  CA        12.3520   50.9060   42.6490 C.3   135  HIS135      0.1621
     34  C         13.1180   50.2610   41.4910 C.2   135  HIS135      0.2264
     35  O         13.8530   50.9330   40.7660 O.2   135  HIS135     -0.2867
     36  CB        10.9550   51.3230   42.1830 C.3   135  HIS135      0.0745
     37  CG        10.0840   50.1760   41.7850 C.ar  135  HIS135      0.0817
     38  ND1        9.8240   49.8600   40.4690 N.ar  135  HIS135     -0.2268
     39  CD2        9.4250   49.2580   42.5310 C.ar  135  HIS135      0.1154
     40  CE1        9.0420   48.7990   40.4210 C.ar  135  HIS135      0.1986
     41  NE2        8.7840   48.4120   41.6580 N.ar  135  HIS135     -0.2212
     42  N         12.2040   49.3740   38.6110 N.3   137  SER137     -0.1217
     43  CA        11.9270   49.9850   37.3100 C.3   137  SER137      0.1889
     44  C         12.7960   51.2110   37.0290 C.2   137  SER137      0.2288
     45  O         13.1670   51.4570   35.8830 O.2   137  SER137     -0.2866
     46  CB        10.4460   50.3590   37.1940 C.3   137  SER137      0.2089
     47  OG        10.0870   51.3210   38.1610 O.3   137  SER137     -0.2183
     48  N         12.2430   57.7770   44.0820 N.3   179  ASP179     -0.1239
     49  CA        10.8550   57.3690   44.2430 C.3   179  ASP179      0.1674
     50  C         10.2460   58.5390   45.0260 C.2   179  ASP179      0.2266
     51  O         10.9650   59.2280   45.7510 O.2   179  ASP179     -0.2867
     52  CB        10.7530   56.1120   45.1180 C.3   179  ASP179      0.1410
     53  CG        10.9730   54.8270   44.3510 C.2   179  ASP179      0.3668
     54  OD1       11.4370   54.8810   43.1990 O.co2 179  ASP179     -0.2456
     55  OD2       10.6860   53.7580   44.9200 O.co2 179  ASP179     -0.2456
     56  N          7.6410   57.9230   46.9130 N.3   181  VAL181     -0.1245
     57  CA         7.3540   57.1170   48.0920 C.3   181  VAL181      0.1561
     58  C          8.0170   55.7720   47.8470 C.2   181  VAL181      0.2260
     59  O          7.7590   55.1360   46.8300 O.2   181  VAL181     -0.2867
     60  CB         5.8440   56.8940   48.2710 C.3   181  VAL181      0.0252
     61  CG1        5.5920   55.8400   49.3400 C.3   181  VAL181      0.0019
     62  CG2        5.1600   58.2030   48.6350 C.3   181  VAL181      0.0019
     63  N          8.1340   52.2030   48.0710 N.3   183  SER183     -0.1217
     64  CA         7.1100   51.1640   48.2290 C.3   183  SER183      0.1889
     65  C          7.2690   49.9510   49.1400 C.2   183  SER183      0.2288
     66  O          6.2660   49.3750   49.5400 O.2   183  SER183     -0.2866
     67  CB         6.6910   50.6670   46.8470 C.3   183  SER183      0.2089
     68  OG         7.7280   49.9440   46.2250 O.3   183  SER183     -0.2183
     69  N          9.3270   59.2760   40.6760 N.3   206  ASP206     -0.1239
     70  CA         8.3840   58.2280   40.2960 C.3   206  ASP206      0.1674
     71  C          7.3370   58.2760   41.4050 C.2   206  ASP206      0.2266
     72  O          7.6010   57.8470   42.5250 O.2   206  ASP206     -0.2867
     73  CB         9.0610   56.8530   40.2980 C.3   206  ASP206      0.1410
     74  CG         8.0900   55.7210   40.0030 C.2   206  ASP206      0.3668
     75  OD1        6.8780   55.8750   40.2770 O.co2 206  ASP206     -0.2456
     76  OD2        8.5400   54.6670   39.5130 O.co2 206  ASP206     -0.2456
     77  N          4.3810   56.6670   41.5730 N.3   208  SER208     -0.1202
     78  CA         3.4380   55.5550   41.4700 C.3   208  SER208      0.2020
     79  C          2.6590   55.2820   42.7550 C.2   208  SER208      0.2618
     80  O          1.4660   54.9780   42.7060 O.2   208  SER208     -0.2717
     81  CB         4.1770   54.2810   41.0490 C.3   208  SER208      0.2103
     82  OG         4.6960   54.4110   39.7340 O.3   208  SER208     -0.2182
     83  N          3.3300   55.3800   43.8960 N.am  209  HIS209     -0.1975
     84  CA         2.6880   55.1330   45.1870 C.3   209  HIS209      0.1656
     85  C          2.2900   56.4040   45.9230 C.2   209  HIS209      0.2291
     86  O          2.3240   56.4580   47.1570 O.2   209  HIS209     -0.2864
     87  CB         3.6080   54.2950   46.0720 C.3   209  HIS209      0.0771
     88  CG         3.6240   52.8430   45.7150 C.ar  209  HIS209      0.0820
     89  ND1        2.5970   51.9850   46.0470 N.ar  209  HIS209     -0.2267
     90  CD2        4.5180   52.1060   45.0160 C.ar  209  HIS209      0.1154
     91  CE1        2.8630   50.7810   45.5710 C.ar  209  HIS209      0.1986
     92  NE2        4.0220   50.8300   44.9390 N.ar  209  HIS209     -0.2212
     93  N          1.8000   55.7980   37.5220 N.3   236  THR236     -0.1218
     94  CA         1.0750   54.6330   37.0570 C.3   236  THR236      0.1862
     95  C         -0.4300   54.8500   37.1470 C.2   236  THR236      0.2287
     96  O         -0.9020   55.7200   37.8810 O.2   236  THR236     -0.2866
     97  CB         1.4540   53.3960   37.9080 C.3   236  THR236      0.1770
     98  OG1        0.7490   52.2400   37.4430 O.3   236  THR236     -0.2211
     99  CG2        1.1050   53.6400   39.3720 C.3   236  THR236      0.0375
    100  N         -2.0600   51.9830   37.3870 N.3   238  GLY238     -0.1210
    101  CA        -2.3320   50.6890   37.9910 C.3   238  GLY238      0.1956
    102  C         -2.4130   50.6390   39.5080 C.2   238  GLY238      0.2611
    103  O         -2.5780   49.5640   40.0870 O.2   238  GLY238     -0.2717
    104  N         -2.2960   51.7870   40.1630 N.am  239  LYS239     -0.1979
    105  CA        -2.3780   51.8230   41.6190 C.3   239  LYS239      0.1596
    106  C         -3.6800   52.4850   42.0580 C.2   239  LYS239      0.2287
    107  O         -4.7640   51.9410   41.8420 O.2   239  LYS239     -0.2864
    108  CB        -1.1800   52.5850   42.2050 C.3   239  LYS239      0.0298
    109  CG         0.0560   51.7340   42.4700 C.3   239  LYS239      0.0038
    110  CD         0.4220   50.8610   41.2890 C.3   239  LYS239      0.0206
    111  CE         1.7670   50.1710   41.5090 C.3   239  LYS239      0.1093
    112  NZ         2.0670   49.1940   40.4200 N.3   239  LYS239     -0.1314
    113  N         -4.0680   49.1360   34.3370 N.3   245  SER245     -0.1202
    114  CA        -2.7500   49.1230   33.7130 C.3   245  SER245      0.2020
    115  C         -2.4540   50.4980   33.1320 C.2   245  SER245      0.2619
    116  O         -3.3240   51.3680   33.1060 O.2   245  SER245     -0.2717
    117  CB        -2.6880   48.0790   32.5940 C.3   245  SER245      0.2103
    118  OG        -3.3920   48.5240   31.4490 O.3   245  SER245     -0.2182
    119  N         -1.2240   50.6930   32.6730 N.am  246  GLY246     -0.1956
    120  CA        -0.8590   51.9710   32.0930 C.3   246  GLY246      0.1869
    121  C          0.0710   52.7910   32.9610 C.2   246  GLY246      0.2309
    122  O          0.0830   52.6550   34.1840 O.2   246  GLY246     -0.2863
    123  N          6.8560   39.2490   52.1910 N.3   347  PHE347     -0.1241
    124  CA         7.8290   39.8500   51.2900 C.3   347  PHE347      0.1605
    125  C          9.2340   39.4350   51.7070 C.2   347  PHE347      0.2264
    126  O          9.6150   39.5660   52.8670 O.2   347  PHE347     -0.2867
    127  CB         7.7220   41.3760   51.3080 C.3   347  PHE347      0.0534
    128  CG         6.4810   41.9120   50.6520 C.ar  347  PHE347     -0.0203
    129  CD1        5.2190   41.6380   51.1690 C.ar  347  PHE347     -0.0042
    130  CD2        6.5810   42.7180   49.5250 C.ar  347  PHE347     -0.0042
    131  CE1        4.0720   42.1600   50.5710 C.ar  347  PHE347     -0.0003
    132  CE2        5.4420   43.2470   48.9190 C.ar  347  PHE347     -0.0003
    133  CZ         4.1880   42.9660   49.4430 C.ar  347  PHE347     -0.0000
    134  N          4.1280   43.5350   54.0400 N.3   360  ARG360     -0.1245
    135  CA         3.7730   44.9070   53.7090 C.3   360  ARG360      0.1563
    136  C          2.2700   45.0540   53.6240 C.2   360  ARG360      0.2260
    137  O          1.6490   44.5450   52.6890 O.2   360  ARG360     -0.2867
    138  CB         4.3810   45.3200   52.3640 C.3   360  ARG360      0.0307
    139  CG         4.0810   46.7590   51.9720 C.3   360  ARG360      0.0489
    140  CD         4.5560   47.0920   50.5570 C.3   360  ARG360      0.2205
    141  NE         3.7090   46.4980   49.5250 N.pl3 360  ARG360     -0.0865
    142  CZ         3.8520   46.7190   48.2190 C.cat 360  ARG360      0.5346
    143  NH1        4.8110   47.5200   47.7800 N.pl3 360  ARG360      0.1354
    144  NH2        3.0390   46.1370   47.3500 N.pl3 360  ARG360      0.1354
@<TRIPOS>BOND
     1     9    10    1
     2   118   117    1
     3   120   119    1
     4   120   121    1
     5    12    11    2
     6    14    13    1
     7    10    13    1
     8    10    11    1
     9   117   114    1
    10   119   115   am
    11   121   122    2
    12    11    15   am
    13   116   115    2
    14   115   114    1
    15    24    23    2
    16    23    22    1
    17   114   113    1
    18    27    29   ar
    19    27    26   ar
    20    29    31   ar
    21    15    16    1
    22    18    17    2
    23    22    25    1
    24    22    21    1
    25    25    26    1
    26    17    21   am
    27    17    16    1
    28    16    19    1
    29    26    28   ar
    30    31    30   ar
    31    45    44    2
    32    28    30   ar
    33    19    20    1
    34    44    43    1
    35    94    95    1
    36    94    93    1
    37    94    97    1
    38    95    96    2
    39    46    43    1
    40    46    47    1
    41    43    42    1
    42   100   101    1
    43    98    97    1
    44    97    99    1
    45   101   102    1
    46   102   103    2
    47   102   104   am
    48    76    74   ar
    49    82    81    1
    50    74    75   ar
    51    74    73    1
    52   104   105    1
    53    70    73    1
    54    70    69    1
    55    70    71    1
    56   112   111    1
    57    40    38   ar
    58    40    41   ar
    59    38    37   ar
    60    35    34    2
    61    81    78    1
    62   110   111    1
    63   110   109    1
    64    71    72    2
    65    78    77    1
    66    78    79    1
    67    34    33    1
    68   105   106    1
    69   105   108    1
    70    41    39   ar
    71    37    36    1
    72    37    39   ar
    73   107   106    2
    74    36    33    1
    75   108   109    1
    76    33    32    1
    77    80    79    2
    78    79    83   am
    79    54    53   ar
    80     8     6   am
    81    83    84    1
    82    48    49    1
    83    49    50    1
    84    49    52    1
    85     5     6    1
    86     5     2    1
    87    53    55   ar
    88    53    52    1
    89     6     7    2
    90     4     3    2
    91    92    90   ar
    92    92    91   ar
    93    90    88   ar
    94    50    51    2
    95    84    85    1
    96    84    87    1
    97     3     2    1
    98    91    89   ar
    99     2     1    1
   100    88    89   ar
   101    88    87    1
   102    85    86    2
   103    68    67    1
   104    59    58    2
   105    67    64    1
   106    56    57    1
   107   144   142    1
   108   143   142    1
   109    58    57    1
   110    63    64    1
   111    57    60    1
   112   142   141    2
   113    64    65    1
   114    60    62    1
   115    60    61    1
   116   132   133   ar
   117   132   130   ar
   118    65    66    2
   119   133   131   ar
   120   141   140    1
   121   130   128   ar
   122   140   139    1
   123   131   129   ar
   124   128   129   ar
   125   128   127    1
   126   124   127    1
   127   124   125    1
   128   124   123    1
   129   125   126    2
   130   139   138    1
   131   138   135    1
   132   137   136    2
   133   136   135    1
   134   135   134    1
