@<TRIPOS>MOLECULE
tmp/1fcdB00.pdb
 227 217 0 0 0
SMALL
GASTEIGER

@<TRIPOS>ATOM
      1  N         12.3930   11.5530   32.6210 N.3     7  LEU7       -0.1245
      2  CA        13.0440   10.2790   32.8990 C.3     7  LEU7        0.1561
      3  C         12.1710    9.0960   32.5390 C.2     7  LEU7        0.2260
      4  O         12.6960    8.0980   32.0280 O.2     7  LEU7       -0.2867
      5  CB        13.4100   10.1760   34.3540 C.3     7  LEU7        0.0270
      6  CG        14.6550   10.7610   34.9440 C.3     7  LEU7        0.0019
      7  CD1       15.1870   11.8880   34.1530 C.3     7  LEU7        0.0001
      8  CD2       14.2960   11.3500   36.2730 C.3     7  LEU7        0.0001
      9  N         11.8480    7.6440   28.3320 N.3    10  ASN10      -0.1225
     10  CA        12.8660    6.7120   27.8880 C.3    10  ASN10       0.1785
     11  C         12.6450    5.2750   28.3090 C.2    10  ASN10       0.2597
     12  O         13.4760    4.4370   27.9980 O.2    10  ASN10      -0.2718
     13  CB        14.2060    7.1620   28.4230 C.3    10  ASN10       0.1169
     14  CG        14.5420    8.6060   28.1090 C.2    10  ASN10       0.2627
     15  OD1       14.2180    9.1180   27.0420 O.2    10  ASN10      -0.2716
     16  ND2       15.1730    9.3380   29.0240 N.am   10  ASN10      -0.0877
     17  N         11.6100    4.8770   29.0310 N.am   11  CYS11      -0.1970
     18  CA        11.3760    3.4890   29.4020 C.3    11  CYS11       0.1712
     19  C         10.2680    2.9910   28.5090 C.2    11  CYS11       0.2296
     20  O         10.0090    1.7800   28.4930 O.2    11  CYS11      -0.2864
     21  CB        10.8890    3.3520   30.8530 C.3    11  CYS11       0.0983
     22  SG        11.6110    4.5950   31.9620 S.3    11  CYS11      -0.0798
     23  N         10.1780    2.4470   25.5080 N.3    13  GLY13      -0.1210
     24  CA        10.8000    1.5490   24.5680 C.3    13  GLY13       0.1956
     25  C         10.5850    0.1180   24.9580 C.2    13  GLY13       0.2612
     26  O         10.1060   -0.6570   24.1300 O.2    13  GLY13      -0.2717
     27  N         10.8770   -0.2380   26.2050 N.am   14  CYS14      -0.1956
     28  CA        10.6970   -1.6270   26.6060 C.3    14  CYS14       0.1843
     29  C          9.4290   -1.9640   27.3710 C.2    14  CYS14       0.2625
     30  O          8.9640   -3.0990   27.1870 O.2    14  CYS14      -0.2714
     31  CB        11.8620   -2.1150   27.4420 C.3    14  CYS14       0.0997
     32  SG        13.4240   -1.7650   26.6010 S.3    14  CYS14      -0.0797
     33  N          8.8250   -1.1110   28.2230 N.am   15  HIS15      -0.1973
     34  CA         7.5410   -1.5380   28.7860 C.3    15  HIS15       0.1656
     35  C          6.4770   -0.4800   28.6270 C.2    15  HIS15       0.2291
     36  O          6.1270    0.2080   29.5750 O.2    15  HIS15      -0.2864
     37  CB         7.6170   -1.9540   30.3160 C.3    15  HIS15       0.0771
     38  CG         8.9000   -1.7490   31.0800 C.ar   15  HIS15       0.0820
     39  ND1        9.3620   -0.4440   31.0020 N.ar   15  HIS15      -0.2267
     40  CD2        9.8070   -2.6490   31.7130 C.ar   15  HIS15       0.1154
     41  CE1       10.5770   -0.5530   31.5830 C.ar   15  HIS15       0.1986
     42  NE2       10.8560   -1.7500   31.9820 N.ar   15  HIS15      -0.2212
     43  N          8.1640   -8.3000   28.3870 N.3    26  SER26      -0.1203
     44  CA         8.4330   -7.2450   29.3780 C.3    26  SER26       0.2005
     45  C          7.2910   -7.0870   30.4170 C.2    26  SER26       0.2461
     46  O          6.1280   -7.2570   30.0500 O.2    26  SER26      -0.2732
     47  CB         8.5920   -5.9040   28.7030 C.3    26  SER26       0.2103
     48  OG         9.6580   -5.8220   27.7880 O.3    26  SER26      -0.2182
     49  N          7.5170   -6.8130   31.7180 N.am   27  PRO27      -0.2717
     50  CA         6.4970   -6.4870   32.7160 C.3    27  PRO27       0.1536
     51  C          5.8720   -5.1220   32.5220 C.2    27  PRO27       0.2599
     52  O          6.5760   -4.1620   32.1720 O.2    27  PRO27      -0.2715
     53  CB         7.2230   -6.5840   34.0200 C.3    27  PRO27       0.0310
     54  CG         8.5680   -6.0620   33.6430 C.3    27  PRO27       0.0237
     55  CD         8.8120   -6.8680   32.3770 C.3    27  PRO27       0.0939
     56  N          4.5580   -4.9990   32.7020 N.am   28  SER28      -0.1936
     57  CA         3.9590   -3.6700   32.6830 C.3    28  SER28       0.2055
     58  C          4.3230   -3.1040   34.0340 C.2    28  SER28       0.2642
     59  O          4.3510   -3.8680   34.9980 O.2    28  SER28      -0.2714
     60  CB         2.4800   -3.7490   32.5940 C.3    28  SER28       0.2130
     61  OG         1.9830   -4.3650   31.4210 O.3    28  SER28      -0.2179
     62  N          4.6970   -1.8570   34.1440 N.am   29  ILE29      -0.1977
     63  CA         5.0000   -1.2540   35.4150 C.3    29  ILE29       0.1596
     64  C          4.0790   -0.0340   35.6090 C.2    29  ILE29       0.2287
     65  O          4.4640    0.9430   36.2490 O.2    29  ILE29      -0.2864
     66  CB         6.5240   -0.8120   35.4920 C.3    29  ILE29       0.0276
     67  CG1        6.9010    0.0790   34.3530 C.3    29  ILE29       0.0022
     68  CG2        7.4100   -2.0200   35.4740 C.3    29  ILE29       0.0022
     69  CD1        7.9520    1.0680   34.8230 C.3    29  ILE29       0.0001
     70  N          2.1080    1.0700   40.0200 N.3    32  MET32      -0.1245
     71  CA         3.1040    0.3680   40.7840 C.3    32  MET32       0.1570
     72  C          3.2700    1.0770   42.1010 C.2    32  MET32       0.2261
     73  O          3.4460    2.3010   42.1640 O.2    32  MET32      -0.2867
     74  CB         4.4590    0.3250   40.0350 C.3    32  MET32       0.0387
     75  CG         4.8350   -1.0470   39.4520 C.3    32  MET32       0.0595
     76  SD         6.6290   -1.3180   39.6040 S.3    32  MET32      -0.1393
     77  CE         6.6740   -2.5160   40.9010 C.3    32  MET32       0.0692
     78  N          8.5300   -0.0890   43.9290 N.3    37  PHE37      -0.1241
     79  CA         9.3450    0.4400   42.8590 C.3    37  PHE37       0.1605
     80  C         10.7430    0.8200   43.3250 C.2    37  PHE37       0.2264
     81  O         11.6880    0.3020   42.7270 O.2    37  PHE37      -0.2867
     82  CB         8.6780    1.6700   42.2760 C.3    37  PHE37       0.0534
     83  CG         9.1470    2.1740   40.9120 C.ar   37  PHE37      -0.0203
     84  CD1       10.2270    3.0490   40.8070 C.ar   37  PHE37      -0.0042
     85  CD2        8.4710    1.7530   39.7680 C.ar   37  PHE37      -0.0042
     86  CE1       10.6370    3.5070   39.5600 C.ar   37  PHE37      -0.0003
     87  CE2        8.8830    2.2110   38.5300 C.ar   37  PHE37      -0.0003
     88  CZ         9.9630    3.0880   38.4240 C.ar   37  PHE37      -0.0000
     89  N         12.7350   -2.4420   44.3580 N.3    40  VAL40      -0.1231
     90  CA        13.1020   -3.1910   43.1670 C.3    40  VAL40       0.1692
     91  C         14.1610   -2.4570   42.3740 C.2    40  VAL40       0.2591
     92  O         15.2630   -2.9760   42.2750 O.2    40  VAL40      -0.2718
     93  CB        11.8820   -3.4240   42.2860 C.3    40  VAL40       0.0266
     94  CG1       12.2510   -4.2280   41.0720 C.3    40  VAL40       0.0020
     95  CG2       10.8830   -4.2620   43.0360 C.3    40  VAL40       0.0020
     96  N         13.8800   -1.2690   41.8530 N.am   41  MET41      -0.1979
     97  CA        14.8570   -0.4500   41.1660 C.3    41  MET41       0.1605
     98  C         16.2100   -0.3430   41.8900 C.2    41  MET41       0.2287
     99  O         17.2640   -0.5860   41.2890 O.2    41  MET41      -0.2864
    100  CB        14.2840    0.9440   40.9620 C.3    41  MET41       0.0413
    101  CG        13.2940    1.0490   39.8310 C.3    41  MET41       0.0598
    102  SD        13.9560    0.4290   38.2510 S.3    41  MET41      -0.1393
    103  CE        14.4310    1.9150   37.4450 C.3    41  MET41       0.0692
    104  N         17.9220   -3.7680   41.7200 N.3    44  PHE44      -0.1241
    105  CA        18.4180   -3.9860   40.3590 C.3    44  PHE44       0.1605
    106  C         19.7920   -3.3230   40.2940 C.2    44  PHE44       0.2264
    107  O         20.7810   -3.9280   39.9040 O.2    44  PHE44      -0.2867
    108  CB        17.4360   -3.3340   39.3200 C.3    44  PHE44       0.0534
    109  CG        16.3270   -4.2220   38.7700 C.ar   44  PHE44      -0.0203
    110  CD1       16.4780   -5.5940   38.6510 C.ar   44  PHE44      -0.0042
    111  CD2       15.1280   -3.6530   38.3930 C.ar   44  PHE44      -0.0042
    112  CE1       15.4440   -6.3940   38.1620 C.ar   44  PHE44      -0.0003
    113  CE2       14.0690   -4.4470   37.8970 C.ar   44  PHE44      -0.0003
    114  CZ        14.2370   -5.8160   37.7850 C.ar   44  PHE44      -0.0000
    115  N         18.4640  -10.4040   40.2330 N.3    50  ALA50      -0.1231
    116  CA        19.0650  -10.7410   38.9500 C.3    50  ALA50       0.1694
    117  C         18.2700  -10.2080   37.7880 C.2    50  ALA50       0.2593
    118  O         17.0730  -10.4650   37.6820 O.2    50  ALA50      -0.2718
    119  CB        19.1720  -12.2300   38.7740 C.3    50  ALA50       0.0304
    120  N         18.9670   -9.4150   36.9740 N.am   51  SER51      -0.1938
    121  CA        18.4000   -8.8500   35.7690 C.3    51  SER51       0.2055
    122  C         19.0460   -9.3250   34.4680 C.2    51  SER51       0.2644
    123  O         20.0480  -10.0330   34.4960 O.2    51  SER51      -0.2714
    124  CB        18.4870   -7.3460   35.8900 C.3    51  SER51       0.2130
    125  OG        19.6070   -6.8120   36.5850 O.3    51  SER51      -0.2179
    126  N         18.4560   -9.1100   33.3010 N.am   52  THR52      -0.1936
    127  CA        19.2050   -9.3150   32.0870 C.3    52  THR52       0.2028
    128  C         19.7580   -7.9260   31.7710 C.2    52  THR52       0.2642
    129  O         20.8830   -7.8330   31.2980 O.2    52  THR52      -0.2714
    130  CB        18.3370   -9.8410   30.8910 C.3    52  THR52       0.1808
    131  OG1       17.1950   -9.0160   30.7750 O.3    52  THR52      -0.2208
    132  CG2       17.9040  -11.2770   31.0620 C.3    52  THR52       0.0379
    133  N         19.0690   -6.8060   32.0500 N.am   53  ILE53      -0.1963
    134  CA        19.5520   -5.4800   31.6850 C.3    53  ILE53       0.1727
    135  C         19.2250   -4.3690   32.6370 C.2    53  ILE53       0.2616
    136  O         19.8790   -3.3220   32.6530 O.2    53  ILE53      -0.2715
    137  CB        19.0010   -5.1040   30.2880 C.3    53  ILE53       0.0290
    138  CG1       19.7100   -3.8610   29.7350 C.3    53  ILE53       0.0022
    139  CG2       17.4690   -4.9140   30.3940 C.3    53  ILE53       0.0023
    140  CD1       19.4090   -3.6660   28.2400 C.3    53  ILE53       0.0001
    141  N         18.1900   -4.5650   33.4410 N.am   54  MET54      -0.1977
    142  CA        17.7440   -3.4960   34.3320 C.3    54  MET54       0.1605
    143  C         18.8180   -3.0860   35.3080 C.2    54  MET54       0.2287
    144  O         18.8450   -1.9090   35.6240 O.2    54  MET54      -0.2864
    145  CB        16.4900   -3.9100   35.0920 C.3    54  MET54       0.0413
    146  CG        15.1700   -3.7640   34.3260 C.3    54  MET54       0.0598
    147  SD        14.8050   -2.0540   33.8240 S.3    54  MET54      -0.1393
    148  CE        15.1400   -1.1090   35.2690 C.3    54  MET54       0.0692
    149  N         20.4730   -0.4250   33.1840 N.3    57  ILE57      -0.1245
    150  CA        19.5540    0.7180   33.1540 C.3    57  ILE57       0.1561
    151  C         19.5260    1.4910   34.4980 C.2    57  ILE57       0.2260
    152  O         19.8220    2.6850   34.5820 O.2    57  ILE57      -0.2867
    153  CB        18.1200    0.2190   32.8420 C.3    57  ILE57       0.0252
    154  CG1       18.0970   -0.6500   31.5950 C.3    57  ILE57       0.0019
    155  CG2       17.2110    1.4240   32.7070 C.3    57  ILE57       0.0019
    156  CD1       18.3850    0.0670   30.2660 C.3    57  ILE57       0.0001
    157  N         20.6820    5.9550   37.4130 N.3    61  TYR61      -0.1241
    158  CA        19.7210    6.8190   38.0630 C.3    61  TYR61       0.1605
    159  C         20.0320    6.6560   39.5480 C.2    61  TYR61       0.2264
    160  O         20.8240    5.7860   39.9300 O.2    61  TYR61      -0.2867
    161  CB        18.3070    6.3450   37.7290 C.3    61  TYR61       0.0534
    162  CG        17.9140    6.4930   36.2500 C.ar   61  TYR61      -0.0201
    163  CD1       17.9430    7.7450   35.6290 C.ar   61  TYR61      -0.0009
    164  CD2       17.5170    5.3710   35.5080 C.ar   61  TYR61      -0.0009
    165  CE1       17.5770    7.8730   34.2910 C.ar   61  TYR61       0.0417
    166  CE2       17.1580    5.5030   34.1650 C.ar   61  TYR61       0.0417
    167  CZ        17.1800    6.7560   33.5560 C.ar   61  TYR61       0.1957
    168  OH        16.7460    6.9120   32.2320 O.3    61  TYR61      -0.2866
    169  N         10.3080    9.0730   39.5670 N.3    69  MET69      -0.1245
    170  CA         9.7790    8.0760   38.6700 C.3    69  MET69       0.1570
    171  C          8.6340    7.2680   39.2550 C.2    69  MET69       0.2261
    172  O          7.6490    7.0330   38.5420 O.2    69  MET69      -0.2867
    173  CB        10.8790    7.1350   38.2440 C.3    69  MET69       0.0387
    174  CG        11.7470    7.6720   37.1190 C.3    69  MET69       0.0595
    175  SD        12.9220    6.3700   36.6090 S.3    69  MET69      -0.1393
    176  CE        14.4080    7.3180   36.7160 C.3    69  MET69       0.0692
    177  N          5.0010    6.7380   37.9180 N.3    73  PHE73      -0.1241
    178  CA         4.2200    5.5850   37.5160 C.3    73  PHE73       0.1605
    179  C          2.9740    5.3490   38.3330 C.2    73  PHE73       0.2264
    180  O          1.9560    4.9830   37.7380 O.2    73  PHE73      -0.2867
    181  CB         5.0870    4.3330   37.5230 C.3    73  PHE73       0.0534
    182  CG         5.8570    4.3100   36.2130 C.ar   73  PHE73      -0.0203
    183  CD1        5.1780    4.0780   35.0130 C.ar   73  PHE73      -0.0042
    184  CD2        7.2230    4.5820   36.2010 C.ar   73  PHE73      -0.0042
    185  CE1        5.8770    4.1300   33.8110 C.ar   73  PHE73      -0.0003
    186  CE2        7.9150    4.6320   34.9970 C.ar   73  PHE73      -0.0003
    187  CZ         7.2450    4.4080   33.8020 C.ar   73  PHE73      -0.0000
    188  N          1.6140   -6.7150   42.2150 N.3   120  ILE120     -0.1245
    189  CA         0.8460   -6.7810   40.9960 C.3   120  ILE120      0.1561
    190  C          1.1450   -8.0550   40.2290 C.2   120  ILE120      0.2260
    191  O          2.2920   -8.4070   40.0250 O.2   120  ILE120     -0.2867
    192  CB         1.1990   -5.4170   40.3230 C.3   120  ILE120      0.0252
    193  CG1        0.2940   -5.2600   39.1130 C.3   120  ILE120      0.0019
    194  CG2        2.7270   -5.2800   40.0910 C.3   120  ILE120      0.0019
    195  CD1        0.3310   -3.7650   38.7900 C.3   120  ILE120      0.0001
    196  N         -0.4110   -9.4160   34.4290 N.3   124  GLN124     -0.1245
    197  CA         0.9940   -9.2620   34.0930 C.3   124  GLN124      0.1566
    198  C          1.2600  -10.3810   33.1080 C.2   124  GLN124      0.2260
    199  O          0.5400  -11.3840   33.0370 O.2   124  GLN124     -0.2867
    200  CB         1.8460   -9.4090   35.3440 C.3   124  GLN124      0.0367
    201  CG         3.3120   -9.0920   35.2860 C.3   124  GLN124      0.0905
    202  CD         3.5980   -7.7060   34.8060 C.2   124  GLN124      0.2608
    203  OE1        3.2170   -7.3710   33.6930 O.2   124  GLN124     -0.2717
    204  NE2        4.2880   -6.8360   35.5110 N.am  124  GLN124     -0.0878
    205  N          6.9860  -13.3490   31.7300 N.3   128  TYR128     -0.1241
    206  CA         7.7080  -12.6250   32.7780 C.3   128  TYR128      0.1605
    207  C          7.5450  -13.3130   34.1360 C.2   128  TYR128      0.2264
    208  O          8.5240  -13.5720   34.8460 O.2   128  TYR128     -0.2867
    209  CB         7.2090  -11.1950   32.9440 C.3   128  TYR128      0.0534
    210  CG         7.9030  -10.5170   34.1250 C.ar  128  TYR128     -0.0201
    211  CD1        9.2530  -10.1600   34.0260 C.ar  128  TYR128     -0.0009
    212  CD2        7.1970  -10.2700   35.3070 C.ar  128  TYR128     -0.0009
    213  CE1        9.9000   -9.5650   35.1130 C.ar  128  TYR128      0.0417
    214  CE2        7.8460   -9.6780   36.3970 C.ar  128  TYR128      0.0417
    215  CZ         9.1980   -9.3270   36.3000 C.ar  128  TYR128      0.1957
    216  OH         9.8310   -8.7600   37.3620 O.3   128  TYR128     -0.2866
    217  N         16.8810  -14.1050   43.1570 N.3   141  ARG141     -0.1245
    218  CA        16.1460  -12.9740   43.7140 C.3   141  ARG141      0.1563
    219  C         15.9150  -13.1540   45.2030 C.2   141  ARG141      0.2260
    220  O         15.5880  -14.2560   45.6720 O.2   141  ARG141     -0.2867
    221  CB        14.7620  -12.8840   43.0760 C.3   141  ARG141      0.0307
    222  CG        14.7500  -12.1250   41.7540 C.3   141  ARG141      0.0489
    223  CD        13.3370  -11.7580   41.3010 C.3   141  ARG141      0.2205
    224  NE        12.6700  -10.8190   42.2120 N.pl3 141  ARG141     -0.0865
    225  CZ        11.5280  -10.1820   41.9250 C.cat 141  ARG141      0.5346
    226  NH1       10.9070  -10.3770   40.7530 N.pl3 141  ARG141      0.1354
    227  NH2       10.9220   -9.3200   42.7520 N.pl3 141  ARG141      0.1354
@<TRIPOS>BOND
     1    26    25    2
     2    24    25    1
     3    24    23    1
     4    25    27   am
     5    27    28    1
     6    32    31    1
     7    28    29    1
     8    28    31    1
     9    15    14    2
    10    30    29    2
    11    29    33   am
    12    48    47    1
    13    10    11    1
    14    10     9    1
    15    10    13    1
    16    12    11    2
    17    14    13    1
    18    14    16   am
    19    33    34    1
    20   140   138    1
    21    11    17   am
    22    43    44    1
    23    20    19    2
    24    19    18    1
    25    35    34    1
    26    35    36    2
    27    47    44    1
    28    34    37    1
    29    17    18    1
    30    44    45    1
    31    18    21    1
    32   138   137    1
    33    46    45    2
    34   156   154    1
    35   137   139    1
    36   137   134    1
    37    37    38    1
    38    45    49   am
    39   131   130    1
    40    21    22    1
    41   130   132    1
    42   130   127    1
    43    39    38   ar
    44    39    41   ar
    45    38    40   ar
    46   129   128    2
    47    61    60    1
    48    41    42   ar
    49   154   153    1
    50   134   133    1
    51   134   135    1
    52    40    42   ar
    53    49    55    1
    54    49    50    1
    55   205   206    1
    56   128   133   am
    57   128   127    1
    58     4     3    2
    59   127   126    1
    60    52    51    2
    61   168   167    1
    62    55    54    1
    63    51    56   am
    64    51    50    1
    65     3     2    1
    66    60    57    1
    67     1     2    1
    68   135   136    2
    69   135   141   am
    70    57    56    1
    71    57    58    1
    72   155   153    1
    73    50    53    1
    74   206   209    1
    75   206   207    1
    76   153   150    1
    77     2     5    1
    78   209   210    1
    79   199   198    2
    80   198   197    1
    81   150   149    1
    82   150   151    1
    83   126   122   am
    84   141   142    1
    85   167   166   ar
    86   167   165   ar
    87    54    53    1
    88   203   202    2
    89   187   185   ar
    90   187   186   ar
    91   185   183   ar
    92   147   146    1
    93   147   148    1
    94   211   210   ar
    95   211   213   ar
    96    58    62   am
    97    58    59    2
    98   197   196    1
    99   197   200    1
   100   210   212   ar
   101   207   208    2
   102    62    63    1
   103     7     6    1
   104   166   164   ar
   105   165   163   ar
   106   146   145    1
   107   142   145    1
   108   142   143    1
   109    67    69    1
   110    67    66    1
   111     5     6    1
   112   122   123    2
   113   122   121    1
   114   151   152    2
   115   202   201    1
   116   202   204   am
   117     6     8    1
   118   186   184   ar
   119   183   182   ar
   120   213   215   ar
   121   201   200    1
   122   212   214   ar
   123   143   144    2
   124    63    66    1
   125    63    64    1
   126    68    66    1
   127   164   162   ar
   128    64    65    2
   129   163   162   ar
   130   121   124    1
   131   121   120    1
   132   124   125    1
   133   184   182   ar
   134   182   181    1
   135   162   161    1
   136   215   214   ar
   137   215   216    1
   138   175   176    1
   139   175   174    1
   140   120   117   am
   141   174   173    1
   142   157   158    1
   143   103   102    1
   144   178   181    1
   145   178   177    1
   146   178   179    1
   147   118   117    2
   148   161   158    1
   149   180   179    2
   150   114   113   ar
   151   114   112   ar
   152   117   116    1
   153   113   111   ar
   154   158   159    1
   155   112   110   ar
   156   173   170    1
   157   102   101    1
   158   111   109   ar
   159    88    87   ar
   160    88    86   ar
   161    87    85   ar
   162   172   171    2
   163   110   109   ar
   164   170   171    1
   165   170   169    1
   166   109   108    1
   167   119   116    1
   168   195   193    1
   169   116   115    1
   170   193   192    1
   171   108   105    1
   172    75    76    1
   173    75    74    1
   174   159   160    2
   175    86    84   ar
   176    76    77    1
   177    85    83   ar
   178   101   100    1
   179   107   106    2
   180    70    71    1
   181   191   190    2
   182    74    71    1
   183   194   192    1
   184   190   189    1
   185   106   105    1
   186   192   189    1
   187   105   104    1
   188   226   225    1
   189    71    72    1
   190    84    83   ar
   191    83    82    1
   192   100    97    1
   193   189   188    1
   194    94    93    1
   195    97    96    1
   196    97    98    1
   197    99    98    2
   198   223   222    1
   199   223   224    1
   200   222   221    1
   201    96    91   am
   202   225   224    2
   203   225   227    1
   204    72    73    2
   205    92    91    2
   206    82    79    1
   207    93    95    1
   208    93    90    1
   209    91    90    1
   210    81    80    2
   211    79    80    1
   212    79    78    1
   213   221   218    1
   214   217   218    1
   215    90    89    1
   216   218   219    1
   217   219   220    2
