@<TRIPOS>MOLECULE
tmp/1fcdC01.pdb
 103 100 0 0 0
SMALL
GASTEIGER

@<TRIPOS>ATOM
      1  N         54.7570  -23.8180   33.0450 N.3   306  TYR306     -0.1241
      2  CA        54.0130  -24.3230   34.2150 C.3   306  TYR306      0.1605
      3  C         53.5180  -25.7590   34.0000 C.2   306  TYR306      0.2264
      4  O         53.6130  -26.6060   34.8900 O.2   306  TYR306     -0.2867
      5  CB        52.8100  -23.4380   34.5750 C.3   306  TYR306      0.0534
      6  CG        52.6360  -23.3130   36.1010 C.ar  306  TYR306     -0.0201
      7  CD1       52.3820  -24.4560   36.8790 C.ar  306  TYR306     -0.0009
      8  CD2       52.7360  -22.0640   36.7290 C.ar  306  TYR306     -0.0009
      9  CE1       52.2670  -24.3510   38.2740 C.ar  306  TYR306      0.0417
     10  CE2       52.6310  -21.9610   38.1240 C.ar  306  TYR306      0.0417
     11  CZ        52.4040  -23.1050   38.8970 C.ar  306  TYR306      0.1957
     12  OH        52.3370  -23.0090   40.2540 O.3   306  TYR306     -0.2866
     13  N         48.2660  -28.1210   37.4750 N.3   334  LEU334     -0.1245
     14  CA        47.8990  -26.6910   37.4330 C.3   334  LEU334      0.1561
     15  C         48.7240  -25.9780   36.3500 C.2   334  LEU334      0.2260
     16  O         49.8710  -26.3540   36.0680 O.2   334  LEU334     -0.2867
     17  CB        48.2150  -26.0720   38.8010 C.3   334  LEU334      0.0270
     18  CG        47.6560  -24.6630   38.9930 C.3   334  LEU334      0.0019
     19  CD1       47.1570  -24.4120   40.4190 C.3   334  LEU334      0.0001
     20  CD2       48.6890  -23.5670   38.7210 C.3   334  LEU334      0.0001
     21  N         49.4190  -21.7840   34.5540 N.3   336  THR336     -0.1218
     22  CA        49.1580  -20.3940   34.1850 C.3   336  THR336      0.1862
     23  C         50.2170  -19.9440   33.1300 C.2   336  THR336      0.2287
     24  O         51.3900  -20.3770   33.1810 O.2   336  THR336     -0.2866
     25  CB        49.2220  -19.4890   35.4080 C.3   336  THR336      0.1770
     26  OG1       50.4410  -19.7900   36.0450 O.3   336  THR336     -0.2211
     27  CG2       48.2080  -19.7910   36.4400 C.3   336  THR336      0.0375
     28  N         51.2780  -16.4460   32.1720 N.3   338  TYR338     -0.1241
     29  CA        51.2060  -14.9920   32.3740 C.3   338  TYR338      0.1605
     30  C         51.5960  -14.1460   31.1660 C.2   338  TYR338      0.2264
     31  O         52.6480  -14.4470   30.6070 O.2   338  TYR338     -0.2867
     32  CB        52.1590  -14.5230   33.4640 C.3   338  TYR338      0.0534
     33  CG        51.6260  -14.5070   34.8720 C.ar  338  TYR338     -0.0201
     34  CD1       50.8830  -13.3850   35.2420 C.ar  338  TYR338     -0.0009
     35  CD2       51.8600  -15.5610   35.7650 C.ar  338  TYR338     -0.0009
     36  CE1       50.3610  -13.3110   36.5250 C.ar  338  TYR338      0.0417
     37  CE2       51.3390  -15.4870   37.0530 C.ar  338  TYR338      0.0417
     38  CZ        50.5910  -14.3560   37.4250 C.ar  338  TYR338      0.1957
     39  OH        50.0630  -14.2240   38.6980 O.3   338  TYR338     -0.2866
     40  N         44.6310  -19.2360   34.1420 N.3   350  ALA350     -0.1245
     41  CA        45.0280  -20.2800   35.0650 C.3   350  ALA350      0.1562
     42  C         43.9960  -21.4250   34.7950 C.2   350  ALA350      0.2260
     43  O         43.0340  -21.2520   34.0340 O.2   350  ALA350     -0.2867
     44  CB        44.8960  -19.8530   36.4870 C.3   350  ALA350      0.0290
     45  N         43.7510  -25.3820   36.6350 N.3   352  ILE352     -0.1245
     46  CA        43.5600  -26.5950   37.5040 C.3   352  ILE352      0.1561
     47  C         42.9050  -27.7510   36.7210 C.2   352  ILE352      0.2260
     48  O         41.8160  -27.5990   36.1420 O.2   352  ILE352     -0.2867
     49  CB        42.6230  -26.3320   38.6910 C.3   352  ILE352      0.0252
     50  CG1       42.8950  -25.0100   39.3990 C.3   352  ILE352      0.0019
     51  CG2       42.7250  -27.4130   39.7780 C.3   352  ILE352      0.0019
     52  CD1       44.0180  -25.1060   40.4310 C.3   352  ILE352      0.0001
     53  N         44.4350   -1.7310   39.2060 N.3   379  TRP379     -0.1241
     54  CA        45.2800   -2.3880   40.1910 C.3   379  TRP379      0.1605
     55  C         45.4150   -3.8390   39.8430 C.2   379  TRP379      0.2264
     56  O         46.4690   -4.3950   40.1190 O.2   379  TRP379     -0.2867
     57  CB        44.7580   -2.3160   41.6650 C.3   379  TRP379      0.0550
     58  CG        43.4580   -3.0180   42.0380 C.ar  379  TRP379      0.0003
     59  CD1       42.2920   -2.3530   41.7950 C.ar  379  TRP379      0.0946
     60  CD2       43.2700   -4.2930   42.5120 C.ar  379  TRP379      0.0152
     61  NE1       41.3700   -3.2200   42.0850 N.ar  379  TRP379     -0.2442
     62  CE2       41.8960   -4.3690   42.5050 C.ar  379  TRP379      0.0810
     63  CE3       43.9830   -5.3950   42.9280 C.ar  379  TRP379      0.0012
     64  CZ2       41.2020   -5.5110   42.8950 C.ar  379  TRP379      0.0191
     65  CZ3       43.3050   -6.5380   43.3240 C.ar  379  TRP379      0.0001
     66  CH2       41.9180   -6.6080   43.3100 C.ar  379  TRP379      0.0015
     67  N         49.3440   -5.2080   39.1030 N.3   383  ARG383     -0.1245
     68  CA        49.9340   -6.2030   39.9920 C.3   383  ARG383      0.1563
     69  C         50.1720   -7.5010   39.2680 C.2   383  ARG383      0.2260
     70  O         51.0910   -8.2610   39.5940 O.2   383  ARG383     -0.2867
     71  CB        49.0290   -6.4980   41.2180 C.3   383  ARG383      0.0307
     72  CG        48.6740   -5.3110   42.1270 C.3   383  ARG383      0.0489
     73  CD        47.8580   -5.6930   43.3610 C.3   383  ARG383      0.2205
     74  NE        47.2570   -4.5190   43.9750 N.pl3 383  ARG383     -0.0865
     75  CZ        46.5090   -4.6250   45.0710 C.cat 383  ARG383      0.5346
     76  NH1       46.2820   -5.8000   45.6540 N.pl3 383  ARG383      0.1354
     77  NH2       45.9570   -3.5330   45.5750 N.pl3 383  ARG383      0.1354
     78  N         53.6290  -10.0760   39.7620 N.3   387  TYR387     -0.1241
     79  CA        53.3690  -11.4710   40.0830 C.3   387  TYR387      0.1605
     80  C         53.9840  -12.3660   38.9960 C.2   387  TYR387      0.2264
     81  O         54.4770  -13.4630   39.2810 O.2   387  TYR387     -0.2867
     82  CB        51.8690  -11.6750   40.2690 C.3   387  TYR387      0.0534
     83  CG        51.3970  -11.1090   41.6140 C.ar  387  TYR387     -0.0201
     84  CD1       52.2940  -11.0450   42.6900 C.ar  387  TYR387     -0.0009
     85  CD2       50.0830  -10.6510   41.7730 C.ar  387  TYR387     -0.0009
     86  CE1       51.8800  -10.5210   43.9210 C.ar  387  TYR387      0.0417
     87  CE2       49.6680  -10.1270   43.0070 C.ar  387  TYR387      0.0417
     88  CZ        50.5680  -10.0610   44.0800 C.ar  387  TYR387      0.1957
     89  OH        50.1680   -9.5510   45.2760 O.3   387  TYR387     -0.2866
     90  N         56.5110  -15.1810   39.6260 N.3   391  TRP391     -0.1241
     91  CA        56.3190  -16.5300   39.1350 C.3   391  TRP391      0.1605
     92  C         57.6050  -16.9920   38.4370 C.2   391  TRP391      0.2264
     93  O         58.0400  -18.1430   38.5840 O.2   391  TRP391     -0.2867
     94  CB        55.1510  -16.5750   38.1640 C.3   391  TRP391      0.0550
     95  CG        55.1910  -17.8190   37.3010 C.ar  391  TRP391      0.0003
     96  CD1       54.7100  -19.0240   37.6130 C.ar  391  TRP391      0.0946
     97  CD2       55.7670  -17.8780   36.0150 C.ar  391  TRP391      0.0152
     98  NE1       54.9910  -19.8760   36.5070 N.ar  391  TRP391     -0.2442
     99  CE2       55.6140  -19.1860   35.5800 C.ar  391  TRP391      0.0810
    100  CE3       56.4030  -16.9480   35.1840 C.ar  391  TRP391      0.0012
    101  CZ2       56.0750  -19.6360   34.3420 C.ar  391  TRP391      0.0191
    102  CZ3       56.8610  -17.4090   33.9340 C.ar  391  TRP391      0.0001
    103  CH2       56.7050  -18.6920   33.5350 C.ar  391  TRP391      0.0015
@<TRIPOS>BOND
     1    31    30    2
     2    30    29    1
     3    28    29    1
     4    29    32    1
     5     1     2    1
     6    23    24    2
     7    23    22    1
     8    32    33    1
     9   103   102   ar
    10   103   101   ar
    11   102   100   ar
    12     3     2    1
    13     3     4    2
    14    43    42    2
    15    40    41    1
    16    22    21    1
    17    22    25    1
    18     2     5    1
    19   101    99   ar
    20     5     6    1
    21    42    41    1
    22    33    34   ar
    23    33    35   ar
    24    41    44    1
    25   100    97   ar
    26    34    36   ar
    27    25    26    1
    28    25    27    1
    29    99    97   ar
    30    99    98   ar
    31    35    37   ar
    32    97    95   ar
    33    16    15    2
    34     6     8   ar
    35     6     7   ar
    36    48    47    2
    37    15    14    1
    38    98    96   ar
    39    36    38   ar
    40    45    46    1
    41    47    46    1
    42     8    10   ar
    43     7     9   ar
    44    37    38   ar
    45    95    96   ar
    46    95    94    1
    47    38    39    1
    48    14    13    1
    49    14    17    1
    50    46    49    1
    51    10    11   ar
    52    94    91    1
    53     9    11   ar
    54    92    93    2
    55    92    91    1
    56    49    50    1
    57    49    51    1
    58    20    18    1
    59    17    18    1
    60    11    12    1
    61    18    19    1
    62    80    81    2
    63    80    79    1
    64    67    68    1
    65    91    90    1
    66    53    54    1
    67    69    70    2
    68    69    68    1
    69    50    52    1
    70    78    79    1
    71    55    56    2
    72    55    54    1
    73    68    71    1
    74    79    82    1
    75    54    57    1
    76    82    83    1
    77    71    72    1
    78    83    85   ar
    79    83    84   ar
    80    57    58    1
    81    85    87   ar
    82    59    58   ar
    83    59    61   ar
    84    58    60   ar
    85    61    62   ar
    86    72    73    1
    87    62    60   ar
    88    62    64   ar
    89    60    63   ar
    90    84    86   ar
    91    64    66   ar
    92    63    65   ar
    93    87    88   ar
    94    66    65   ar
    95    73    74    1
    96    86    88   ar
    97    74    75    2
    98    88    89    1
    99    75    77    1
   100    75    76    1
