@<TRIPOS>MOLECULE
tmp/1fceA01.pdb
 243 237 0 0 0
SMALL
GASTEIGER

@<TRIPOS>ATOM
      1  N         58.1020   71.2710   57.9810 N.3   110  THR110     -0.1218
      2  CA        56.6820   71.5130   57.8470 C.3   110  THR110      0.1862
      3  C         56.5190   72.6350   56.8460 C.2   110  THR110      0.2287
      4  O         57.1530   73.6830   56.9600 O.2   110  THR110     -0.2866
      5  CB        56.0620   71.9060   59.1900 C.3   110  THR110      0.1770
      6  OG1       56.3160   70.8630   60.1340 O.3   110  THR110     -0.2211
      7  CG2       54.5520   72.1090   59.0610 C.3   110  THR110      0.0375
      8  N         55.3330   75.7750   54.6590 N.3   112  ALA112     -0.1245
      9  CA        54.8690   77.1300   54.9560 C.3   112  ALA112      0.1562
     10  C         54.9580   77.8910   53.6240 C.2   112  ALA112      0.2260
     11  O         55.9390   77.7510   52.8930 O.2   112  ALA112     -0.2867
     12  CB        55.7420   77.7900   56.0120 C.3   112  ALA112      0.0290
     13  N         55.2830   81.0560   50.8600 N.3   114  GLU114     -0.1245
     14  CA        56.0680   82.2680   50.7000 C.3   114  GLU114      0.1567
     15  C         55.1160   83.2780   50.0720 C.2   114  GLU114      0.2260
     16  O         54.2610   82.9120   49.2660 O.2   114  GLU114     -0.2867
     17  CB        57.2570   82.0500   49.7570 C.3   114  GLU114      0.0388
     18  CG        58.3510   81.1410   50.3230 C.3   114  GLU114      0.1160
     19  CD        59.4530   80.8090   49.3120 C.2   114  GLU114      0.3649
     20  OE1       59.5600   81.4640   48.2540 O.co2 114  GLU114     -0.2457
     21  OE2       60.2300   79.8710   49.5830 O.co2 114  GLU114     -0.2457
     22  N         53.2930   88.3060   56.0810 N.3   121  TYR121     -0.1241
     23  CA        53.9310   87.4720   57.0990 C.3   121  TYR121      0.1605
     24  C         53.4280   87.9170   58.4620 C.2   121  TYR121      0.2264
     25  O         53.1030   89.0950   58.6400 O.2   121  TYR121     -0.2867
     26  CB        55.4640   87.5640   57.0030 C.3   121  TYR121      0.0534
     27  CG        56.0210   86.8610   55.7850 C.ar  121  TYR121     -0.0201
     28  CD1       55.8980   87.4270   54.5160 C.ar  121  TYR121     -0.0009
     29  CD2       56.6400   85.6110   55.8930 C.ar  121  TYR121     -0.0009
     30  CE1       56.3710   86.7760   53.3840 C.ar  121  TYR121      0.0417
     31  CE2       57.1200   84.9390   54.7540 C.ar  121  TYR121      0.0417
     32  CZ        56.9780   85.5370   53.5090 C.ar  121  TYR121      0.1957
     33  OH        57.4570   84.9180   52.3800 O.3   121  TYR121     -0.2866
     34  N         52.2860   77.7190   59.1370 N.3   125  LEU125     -0.1245
     35  CA        52.7520   76.3490   58.9160 C.3   125  LEU125      0.1561
     36  C         51.5160   75.4740   58.6810 C.2   125  LEU125      0.2260
     37  O         50.4780   75.6510   59.3240 O.2   125  LEU125     -0.2867
     38  CB        53.5220   75.8360   60.1420 C.3   125  LEU125      0.0270
     39  CG        54.8950   76.4460   60.4630 C.3   125  LEU125      0.0019
     40  CD1       55.4400   75.8580   61.7730 C.3   125  LEU125      0.0001
     41  CD2       55.8520   76.1500   59.3170 C.3   125  LEU125      0.0001
     42  N         75.4960   82.0940   56.7850 N.3   154  TRP154     -0.1241
     43  CA        75.8890   83.1910   55.9150 C.3   154  TRP154      0.1605
     44  C         76.2200   84.5720   56.4550 C.2   154  TRP154      0.2264
     45  O         76.9310   85.3080   55.7980 O.2   154  TRP154     -0.2867
     46  CB        74.8810   83.3170   54.7650 C.3   154  TRP154      0.0550
     47  CG        73.7280   84.2180   55.0710 C.ar  154  TRP154      0.0003
     48  CD1       72.6130   83.9130   55.8000 C.ar  154  TRP154      0.0946
     49  CD2       73.5940   85.5940   54.6790 C.ar  154  TRP154      0.0152
     50  NE1       71.7990   85.0160   55.8890 N.ar  154  TRP154     -0.2442
     51  CE2       72.3750   86.0620   55.2120 C.ar  154  TRP154      0.0810
     52  CE3       74.3920   86.4750   53.9290 C.ar  154  TRP154      0.0012
     53  CZ2       71.9260   87.3800   55.0230 C.ar  154  TRP154      0.0191
     54  CZ3       73.9480   87.7830   53.7380 C.ar  154  TRP154      0.0001
     55  CH2       72.7250   88.2210   54.2850 C.ar  154  TRP154      0.0015
     56  N         70.4500   86.7050   61.6300 N.3   178  ASN178     -0.1240
     57  CA        69.9570   86.5220   60.2760 C.3   178  ASN178      0.1653
     58  C         69.0750   87.7500   60.0200 C.2   178  ASN178      0.2266
     59  O         68.7280   88.4950   60.9580 O.2   178  ASN178     -0.2867
     60  CB        69.1930   85.2120   60.0630 C.3   178  ASN178      0.1155
     61  CG        69.2100   84.7630   58.5870 C.2   178  ASN178      0.2627
     62  OD1       69.4980   85.5440   57.6840 O.2   178  ASN178     -0.2716
     63  ND2       68.9440   83.4860   58.3550 N.am  178  ASN178     -0.0877
     64  N         67.0520   88.5380   56.2350 N.3   180  PHE180     -0.1227
     65  CA        65.9910   88.1870   55.2810 C.3   180  PHE180      0.1736
     66  C         65.1360   87.0090   55.7560 C.2   180  PHE180      0.2595
     67  O         65.6570   85.9610   56.1290 O.2   180  PHE180     -0.2718
     68  CB        66.5730   87.8540   53.8950 C.3   180  PHE180      0.0547
     69  CG        67.4410   88.9420   53.3100 C.ar  180  PHE180     -0.0202
     70  CD1       66.8750   90.1070   52.7940 C.ar  180  PHE180     -0.0042
     71  CD2       68.8250   88.7890   53.2610 C.ar  180  PHE180     -0.0042
     72  CE1       67.6770   91.1040   52.2360 C.ar  180  PHE180     -0.0003
     73  CE2       69.6320   89.7750   52.7090 C.ar  180  PHE180     -0.0003
     74  CZ        69.0590   90.9380   52.1950 C.ar  180  PHE180     -0.0000
     75  N         63.8180   87.1880   55.7190 N.am  181  GLN181     -0.1979
     76  CA        62.8680   86.1590   56.1390 C.3   181  GLN181      0.1601
     77  C         61.5360   86.2480   55.4060 C.2   181  GLN181      0.2287
     78  O         60.8090   85.2530   55.3290 O.2   181  GLN181     -0.2864
     79  CB        62.5480   86.3170   57.6280 C.3   181  GLN181      0.0394
     80  CG        63.6310   85.8810   58.6010 C.3   181  GLN181      0.0908
     81  CD        63.8230   84.3900   58.6010 C.2   181  GLN181      0.2608
     82  OE1       62.9060   83.6400   58.9260 O.2   181  GLN181     -0.2717
     83  NE2       65.0030   83.9450   58.1950 N.am  181  GLN181     -0.0878
     84  N         60.2900   86.9040   51.9500 N.3   183  GLY183     -0.1225
     85  CA        60.0710   86.9120   50.5130 C.3   183  GLY183      0.1811
     86  C         60.7980   87.8630   49.5940 C.2   183  GLY183      0.2280
     87  O         61.6080   88.6950   50.0200 O.2   183  GLY183     -0.2866
     88  N         60.2620   85.1270   66.5830 N.3   209  LEU209     -0.1245
     89  CA        59.6720   84.0040   65.8490 C.3   209  LEU209      0.1561
     90  C         58.3360   84.2250   65.1600 C.2   209  LEU209      0.2260
     91  O         58.1840   83.9270   63.9670 O.2   209  LEU209     -0.2867
     92  CB        59.6220   82.7640   66.7450 C.3   209  LEU209      0.0270
     93  CG        61.0190   82.4040   67.2750 C.3   209  LEU209      0.0019
     94  CD1       60.9180   81.4340   68.4380 C.3   209  LEU209      0.0001
     95  CD2       61.9030   81.8670   66.1390 C.3   209  LEU209      0.0001
     96  N         57.6350   85.8960   61.6670 N.3   212  PHE212     -0.1227
     97  CA        57.8460   85.1630   60.4240 C.3   212  PHE212      0.1736
     98  C         57.0070   83.9380   60.1440 C.2   212  PHE212      0.2596
     99  O         56.6620   83.6820   58.9910 O.2   212  PHE212     -0.2718
    100  CB        59.3340   84.8500   60.3120 C.3   212  PHE212      0.0547
    101  CG        60.2070   86.0450   60.6070 C.ar  212  PHE212     -0.0202
    102  CD1       60.0730   87.2170   59.8520 C.ar  212  PHE212     -0.0042
    103  CD2       61.1260   86.0200   61.6600 C.ar  212  PHE212     -0.0042
    104  CE1       60.8310   88.3390   60.1350 C.ar  212  PHE212     -0.0003
    105  CE2       61.9000   87.1480   61.9580 C.ar  212  PHE212     -0.0003
    106  CZ        61.7520   88.3090   61.1960 C.ar  212  PHE212     -0.0000
    107  N         56.7690   83.1180   61.1570 N.am  213  THR213     -0.1953
    108  CA        55.9170   81.9580   60.9570 C.3   213  THR213      0.1897
    109  C         54.9320   81.8850   62.0850 C.2   213  THR213      0.2313
    110  O         55.2000   82.3470   63.1900 O.2   213  THR213     -0.2863
    111  CB        56.6750   80.6200   60.8700 C.3   213  THR213      0.1794
    112  OG1       57.7950   80.6540   61.7440 O.3   213  THR213     -0.2208
    113  CG2       57.1360   80.3440   59.4420 C.3   213  THR213      0.0378
    114  N         64.1400   78.2010   69.9730 N.3   222  GLN222     -0.1245
    115  CA        64.7920   77.4550   68.9010 C.3   222  GLN222      0.1566
    116  C         65.9320   78.1960   68.2200 C.2   222  GLN222      0.2260
    117  O         66.0620   79.4180   68.3480 O.2   222  GLN222     -0.2867
    118  CB        63.7400   77.1040   67.8430 C.3   222  GLN222      0.0367
    119  CG        62.9750   78.3170   67.3310 C.3   222  GLN222      0.0905
    120  CD        61.7670   77.9530   66.4940 C.2   222  GLN222      0.2608
    121  OE1       61.8730   77.7580   65.2880 O.2   222  GLN222     -0.2717
    122  NE2       60.5980   77.8840   67.1320 N.am  222  GLN222     -0.0878
    123  N         68.2290   78.4190   64.3880 N.3   224  LYS224     -0.1231
    124  CA        68.0630   78.1930   62.9570 C.3   224  LYS224      0.1693
    125  C         69.1930   78.8960   62.2420 C.2   224  LYS224      0.2592
    126  O         69.5880   80.0070   62.6330 O.2   224  LYS224     -0.2718
    127  CB        66.7100   78.7140   62.4420 C.3   224  LYS224      0.0285
    128  CG        66.3980   80.1630   62.8160 C.3   224  LYS224      0.0035
    129  CD        65.3210   80.1940   63.9000 C.3   224  LYS224      0.0206
    130  CE        65.5640   81.2860   64.9620 C.3   224  LYS224      0.1093
    131  NZ        65.2940   82.6450   64.4320 N.3   224  LYS224     -0.1314
    132  N         69.7300   78.2360   61.2150 N.am  225  TYR225     -0.1962
    133  CA        70.8310   78.7830   60.4130 C.3   225  TYR225      0.1771
    134  C         70.5330   78.6730   58.9140 C.2   225  TYR225      0.2620
    135  O         69.7190   77.8510   58.4860 O.2   225  TYR225     -0.2715
    136  CB        72.1390   78.0610   60.7520 C.3   225  TYR225      0.0574
    137  CG        72.4750   78.1520   62.2170 C.ar  225  TYR225     -0.0198
    138  CD1       72.9940   79.3290   62.7630 C.ar  225  TYR225     -0.0009
    139  CD2       72.2020   77.0900   63.0740 C.ar  225  TYR225     -0.0009
    140  CE1       73.2230   79.4420   64.1390 C.ar  225  TYR225      0.0417
    141  CE2       72.4230   77.1910   64.4460 C.ar  225  TYR225      0.0417
    142  CZ        72.9290   78.3650   64.9700 C.ar  225  TYR225      0.1957
    143  OH        73.1120   78.4730   66.3250 O.3   225  TYR225     -0.2866
    144  N         71.1540   79.5450   58.1300 N.am  226  THR226     -0.1951
    145  CA        70.9600   79.5550   56.6890 C.3   226  THR226      0.1897
    146  C         72.3030   79.6050   55.9820 C.2   226  THR226      0.2313
    147  O         73.1410   80.4780   56.2440 O.2   226  THR226     -0.2863
    148  CB        70.1320   80.7860   56.2370 C.3   226  THR226      0.1794
    149  OG1       68.8710   80.7830   56.9090 O.3   226  THR226     -0.2208
    150  CG2       69.8820   80.7550   54.7320 C.3   226  THR226      0.0378
    151  N         63.0160   72.8590   48.2460 N.3   274  LYS274     -0.1231
    152  CA        62.7750   73.3070   49.6210 C.3   274  LYS274      0.1693
    153  C         62.1290   72.2560   50.5360 C.2   274  LYS274      0.2592
    154  O         62.6570   71.9320   51.6000 O.2   274  LYS274     -0.2718
    155  CB        61.9120   74.5690   49.6020 C.3   274  LYS274      0.0285
    156  CG        61.8220   75.2700   50.9360 C.3   274  LYS274      0.0035
    157  CD        60.9830   76.5130   50.8320 C.3   274  LYS274      0.0206
    158  CE        61.0110   77.3140   52.1190 C.3   274  LYS274      0.1093
    159  NZ        59.9920   78.4110   52.1330 N.3   274  LYS274     -0.1314
    160  N         60.9810   71.7320   50.1150 N.am  275  TYR275     -0.1976
    161  CA        60.2730   70.7320   50.8990 C.3   275  TYR275      0.1639
    162  C         60.3340   69.3550   50.2500 C.2   275  TYR275      0.2290
    163  O         59.4370   68.5220   50.4360 O.2   275  TYR275     -0.2864
    164  CB        58.8320   71.1880   51.1310 C.3   275  TYR275      0.0560
    165  CG        58.7680   72.4350   51.9890 C.ar  275  TYR275     -0.0198
    166  CD1       59.1340   72.3920   53.3390 C.ar  275  TYR275     -0.0009
    167  CD2       58.3740   73.6640   51.4510 C.ar  275  TYR275     -0.0009
    168  CE1       59.1120   73.5420   54.1390 C.ar  275  TYR275      0.0417
    169  CE2       58.3470   74.8210   52.2440 C.ar  275  TYR275      0.0417
    170  CZ        58.7170   74.7540   53.5830 C.ar  275  TYR275      0.1957
    171  OH        58.7000   75.9000   54.3660 O.3   275  TYR275     -0.2866
    172  N         69.4720   78.8020   46.1150 N.3   298  TRP298     -0.1227
    173  CA        69.7220   79.9930   46.9380 C.3   298  TRP298      0.1737
    174  C         70.1630   79.7160   48.3810 C.2   298  TRP298      0.2595
    175  O         70.8810   80.5260   48.9810 O.2   298  TRP298     -0.2718
    176  CB        68.5000   80.9130   46.9270 C.3   298  TRP298      0.0564
    177  CG        68.8200   82.3510   47.2430 C.ar  298  TRP298      0.0003
    178  CD1       68.6480   82.9890   48.4370 C.ar  298  TRP298      0.0946
    179  CD2       69.3400   83.3350   46.3350 C.ar  298  TRP298      0.0152
    180  NE1       69.0210   84.3140   48.3290 N.ar  298  TRP298     -0.2442
    181  CE2       69.4500   84.5500   47.0470 C.ar  298  TRP298      0.0810
    182  CE3       69.7240   83.3040   44.9880 C.ar  298  TRP298      0.0012
    183  CZ2       69.9260   85.7270   46.4590 C.ar  298  TRP298      0.0191
    184  CZ3       70.2030   84.4830   44.4020 C.ar  298  TRP298      0.0001
    185  CH2       70.2970   85.6720   45.1380 C.ar  298  TRP298      0.0015
    186  N         69.7770   78.5570   48.9210 N.am  299  TYR299     -0.1976
    187  CA        70.1410   78.2040   50.2980 C.3   299  TYR299      0.1639
    188  C         69.6650   76.8210   50.6960 C.2   299  TYR299      0.2290
    189  O         68.9730   76.1330   49.9400 O.2   299  TYR299     -0.2864
    190  CB        69.4710   79.1880   51.2900 C.3   299  TYR299      0.0560
    191  CG        67.9450   79.2330   51.1900 C.ar  299  TYR299     -0.0198
    192  CD1       67.1560   78.2650   51.8130 C.ar  299  TYR299     -0.0009
    193  CD2       67.3010   80.1970   50.4130 C.ar  299  TYR299     -0.0009
    194  CE1       65.7740   78.2430   51.6560 C.ar  299  TYR299      0.0417
    195  CE2       65.9060   80.1880   50.2470 C.ar  299  TYR299      0.0417
    196  CZ        65.1580   79.2040   50.8720 C.ar  299  TYR299      0.1957
    197  OH        63.8020   79.1530   50.7100 O.3   299  TYR299     -0.2866
    198  N         68.7030   75.4410   54.7640 N.3   301  ALA301     -0.1245
    199  CA        68.6470   75.9700   56.1150 C.3   301  ALA301      0.1562
    200  C         68.2780   74.8660   57.0590 C.2   301  ALA301      0.2260
    201  O         67.7660   73.8280   56.6410 O.2   301  ALA301     -0.2867
    202  CB        67.6240   77.1180   56.1940 C.3   301  ALA301      0.0290
    203  N         64.7350   70.3300   61.8770 N.3   312  TRP312     -0.1241
    204  CA        64.2730   70.3500   60.4990 C.3   312  TRP312      0.1605
    205  C         65.3880   70.8310   59.5800 C.2   312  TRP312      0.2264
    206  O         66.3370   71.4590   60.0350 O.2   312  TRP312     -0.2867
    207  CB        63.0870   71.3130   60.3750 C.3   312  TRP312      0.0550
    208  CG        63.4070   72.7040   60.8960 C.ar  312  TRP312      0.0003
    209  CD1       63.2510   73.1600   62.1770 C.ar  312  TRP312      0.0946
    210  CD2       63.9660   73.7870   60.1520 C.ar  312  TRP312      0.0152
    211  NE1       63.6790   74.4630   62.2760 N.ar  312  TRP312     -0.2442
    212  CE2       64.1240   74.8750   61.0480 C.ar  312  TRP312      0.0810
    213  CE3       64.3520   73.9510   58.8100 C.ar  312  TRP312      0.0012
    214  CZ2       64.6520   76.1040   60.6450 C.ar  312  TRP312      0.0191
    215  CZ3       64.8790   75.1850   58.4110 C.ar  312  TRP312      0.0001
    216  CH2       65.0220   76.2360   59.3280 C.ar  312  TRP312      0.0015
    217  N         65.7370   72.2490   55.2800 N.3   314  ILE314     -0.1245
    218  CA        65.0810   72.5430   54.0070 C.3   314  ILE314      0.1561
    219  C         66.1430   72.8860   52.9710 C.2   314  ILE314      0.2260
    220  O         67.2380   73.3670   53.3080 O.2   314  ILE314     -0.2867
    221  CB        64.0930   73.7630   54.0790 C.3   314  ILE314      0.0252
    222  CG1       64.8620   75.0610   54.4130 C.3   314  ILE314      0.0019
    223  CG2       62.9350   73.4790   55.0660 C.3   314  ILE314      0.0019
    224  CD1       64.0160   76.3230   54.4640 C.3   314  ILE314      0.0001
    225  N         64.3850   84.7060   43.3810 N.3   402  VAL402     -0.1231
    226  CA        64.3750   85.0480   44.7930 C.3   402  VAL402      0.1692
    227  C         64.0840   86.4850   45.2190 C.2   402  VAL402      0.2592
    228  O         63.2870   86.6820   46.1260 O.2   402  VAL402     -0.2718
    229  CB        65.6900   84.5630   45.4910 C.3   402  VAL402      0.0266
    230  CG1       65.5200   84.5860   47.0040 C.3   402  VAL402      0.0020
    231  CG2       66.0570   83.1520   45.0270 C.3   402  VAL402      0.0020
    232  N         64.7800   87.4640   44.6370 N.am  403  TYR403     -0.1976
    233  CA        64.5950   88.8810   44.9940 C.3   403  TYR403      0.1639
    234  C         64.1870   89.7710   43.8390 C.2   403  TYR403      0.2290
    235  O         64.6840   89.6380   42.7210 O.2   403  TYR403     -0.2864
    236  CB        65.8550   89.4630   45.6450 C.3   403  TYR403      0.0560
    237  CG        66.1180   88.8910   47.0070 C.ar  403  TYR403     -0.0198
    238  CD1       65.1420   88.9350   47.9980 C.ar  403  TYR403     -0.0009
    239  CD2       67.3080   88.2270   47.2810 C.ar  403  TYR403     -0.0009
    240  CE1       65.3410   88.3160   49.2300 C.ar  403  TYR403      0.0417
    241  CE2       67.5240   87.6050   48.5120 C.ar  403  TYR403      0.0417
    242  CZ        66.5330   87.6510   49.4770 C.ar  403  TYR403      0.1957
    243  OH        66.7340   87.0120   50.6740 O.3   403  TYR403     -0.2866
@<TRIPOS>BOND
     1   235   234    2
     2   225   226    1
     3   234   233    1
     4   184   182   ar
     5   184   185   ar
     6   232   233    1
     7   232   227   am
     8   226   227    1
     9   226   229    1
    10   182   179   ar
    11   233   236    1
    12   231   229    1
    13   185   183   ar
    14   227   228    2
    15   229   230    1
    16   236   237    1
    17   172   173    1
    18   179   181   ar
    19   179   177   ar
    20   183   181   ar
    21   176   173    1
    22   176   177    1
    23   173   174    1
    24   237   239   ar
    25   237   238   ar
    26   181   180   ar
    27   177   178   ar
    28   239   241   ar
    29   238   240   ar
    30   151   152    1
    31    20    19   ar
    32   180   178   ar
    33   174   186   am
    34   174   175    2
    35   241   242   ar
    36   186   187    1
    37   240   242   ar
    38    16    15    2
    39    19    21   ar
    40    19    18    1
    41   242   243    1
    42    86    87    2
    43    86    85    1
    44   155   152    1
    45   155   156    1
    46   152   153    1
    47    17    18    1
    48    17    14    1
    49   189   188    2
    50    15    14    1
    51   160   153   am
    52   160   161    1
    53   195   193   ar
    54   195   196   ar
    55   162   163    2
    56   162   161    1
    57   187   188    1
    58   187   190    1
    59   193   191   ar
    60    85    84    1
    61   153   154    2
    62    14    13    1
    63   197   196    1
    64   157   156    1
    65   157   158    1
    66   196   194   ar
    67   161   164    1
    68   164   165    1
    69   191   190    1
    70   191   192   ar
    71   167   165   ar
    72   167   169   ar
    73   194   192   ar
    74   165   166   ar
    75   158   159    1
    76    74    72   ar
    77    74    73   ar
    78    72    70   ar
    79   169   170   ar
    80    33    32    1
    81    73    71   ar
    82    70    69   ar
    83    11    10    2
    84   219   220    2
    85   219   218    1
    86    71    69   ar
    87    69    68    1
    88   166   168   ar
    89    30    32   ar
    90    30    28   ar
    91    32    31   ar
    92   170   168   ar
    93   170   171    1
    94    10     9    1
    95    54    52   ar
    96    54    55   ar
    97    68    65    1
    98    52    49   ar
    99   218   221    1
   100   218   217    1
   101   221   222    1
   102   221   223    1
   103    55    53   ar
   104   222   224    1
   105    28    27   ar
   106     8     9    1
   107    49    47   ar
   108    49    51   ar
   109   150   148    1
   110    31    29   ar
   111   198   199    1
   112    46    47    1
   113    46    43    1
   114     9    12    1
   115    53    51   ar
   116    47    48   ar
   117    51    50   ar
   118    65    66    1
   119    65    64    1
   120    78    77    2
   121    77    76    1
   122    75    66   am
   123    75    76    1
   124    66    67    2
   125    27    29   ar
   126    27    26    1
   127    45    44    2
   128    48    50   ar
   129    43    44    1
   130    43    42    1
   131   146   147    2
   132   146   145    1
   133    22    23    1
   134   199   202    1
   135   199   200    1
   136    76    79    1
   137   148   145    1
   138   148   149    1
   139   201   200    2
   140   145   144    1
   141     3     4    2
   142     3     2    1
   143    26    23    1
   144    23    24    1
   145    79    80    1
   146    62    61    2
   147     2     1    1
   148     2     5    1
   149   144   134   am
   150    83    81   am
   151    63    61   am
   152   215   213   ar
   153   215   216   ar
   154    24    25    2
   155   135   134    2
   156    61    60    1
   157    81    80    1
   158    81    82    2
   159    36    35    1
   160    36    37    2
   161   213   210   ar
   162   134   133    1
   163    35    34    1
   164    35    38    1
   165    99    98    2
   166     7     5    1
   167     5     6    1
   168    41    39    1
   169   216   214   ar
   170   113   111    1
   171   205   206    2
   172   205   204    1
   173   102   104   ar
   174   102   101   ar
   175    58    57    1
   176    58    59    2
   177    60    57    1
   178   104   106   ar
   179    38    39    1
   180    98    97    1
   181    98   107   am
   182   210   208   ar
   183   210   212   ar
   184    57    56    1
   185   100    97    1
   186   100   101    1
   187   207   204    1
   188   207   208    1
   189   133   136    1
   190   133   132    1
   191    97    96    1
   192    39    40    1
   193   204   203    1
   194   101   103   ar
   195   214   212   ar
   196   136   137    1
   197   111   108    1
   198   111   112    1
   199   208   209   ar
   200   108   107    1
   201   108   109    1
   202   212   211   ar
   203   106   105   ar
   204   132   125   am
   205   103   105   ar
   206   109   110    2
   207   209   211   ar
   208   137   138   ar
   209   137   139   ar
   210   125   126    2
   211   125   124    1
   212   127   128    1
   213   127   124    1
   214   138   140   ar
   215   128   129    1
   216   124   123    1
   217   139   141   ar
   218   129   130    1
   219    91    90    2
   220   140   142   ar
   221   131   130    1
   222   141   142   ar
   223   142   143    1
   224    90    89    1
   225   121   120    2
   226    89    88    1
   227    89    92    1
   228    95    93    1
   229   120   122   am
   230   120   119    1
   231    92    93    1
   232    93    94    1
   233   119   118    1
   234   118   115    1
   235   116   117    2
   236   116   115    1
   237   115   114    1
