@<TRIPOS>MOLECULE
tmp/1fceA00.pdb
 134 128 0 0 0
SMALL
GASTEIGER

@<TRIPOS>ATOM
      1  N         60.6510   68.7730   57.2500 N.3   109  ALA109     -0.1231
      2  CA        60.1610   70.0470   57.7480 C.3   109  ALA109      0.1694
      3  C         58.6600   70.1470   57.5470 C.2   109  ALA109      0.2592
      4  O         58.0150   69.2200   57.0430 O.2   109  ALA109     -0.2718
      5  CB        60.8560   71.1900   57.0130 C.3   109  ALA109      0.0304
      6  N         58.1020   71.2710   57.9810 N.am  110  THR110     -0.1953
      7  CA        56.6820   71.5130   57.8470 C.3   110  THR110      0.1897
      8  C         56.5190   72.6350   56.8460 C.2   110  THR110      0.2313
      9  O         57.1530   73.6830   56.9600 O.2   110  THR110     -0.2863
     10  CB        56.0620   71.9060   59.1900 C.3   110  THR110      0.1794
     11  OG1       56.3160   70.8630   60.1340 O.3   110  THR110     -0.2208
     12  CG2       54.5520   72.1090   59.0610 C.3   110  THR110      0.0378
     13  N         52.2860   77.7190   59.1370 N.3   125  LEU125     -0.1245
     14  CA        52.7520   76.3490   58.9160 C.3   125  LEU125      0.1561
     15  C         51.5160   75.4740   58.6810 C.2   125  LEU125      0.2260
     16  O         50.4780   75.6510   59.3240 O.2   125  LEU125     -0.2867
     17  CB        53.5220   75.8360   60.1420 C.3   125  LEU125      0.0270
     18  CG        54.8950   76.4460   60.4630 C.3   125  LEU125      0.0019
     19  CD1       55.4400   75.8580   61.7730 C.3   125  LEU125      0.0001
     20  CD2       55.8520   76.1500   59.3170 C.3   125  LEU125      0.0001
     21  N         50.7250   71.4460   58.4230 N.3   127  THR127     -0.1218
     22  CA        51.1480   70.0500   58.4880 C.3   127  THR127      0.1862
     23  C         50.4810   69.1360   57.4580 C.2   127  THR127      0.2287
     24  O         50.9420   68.0180   57.2450 O.2   127  THR127     -0.2866
     25  CB        50.8650   69.4620   59.8710 C.3   127  THR127      0.1770
     26  OG1       49.4980   69.7170   60.2120 O.3   127  THR127     -0.2211
     27  CG2       51.7540   70.0890   60.9130 C.3   127  THR127      0.0375
     28  N         60.2620   85.1270   66.5830 N.3   209  LEU209     -0.1245
     29  CA        59.6720   84.0040   65.8490 C.3   209  LEU209      0.1561
     30  C         58.3360   84.2250   65.1600 C.2   209  LEU209      0.2260
     31  O         58.1840   83.9270   63.9670 O.2   209  LEU209     -0.2867
     32  CB        59.6220   82.7640   66.7450 C.3   209  LEU209      0.0270
     33  CG        61.0190   82.4040   67.2750 C.3   209  LEU209      0.0019
     34  CD1       60.9180   81.4340   68.4380 C.3   209  LEU209      0.0001
     35  CD2       61.9030   81.8670   66.1390 C.3   209  LEU209      0.0001
     36  N         56.7690   83.1180   61.1570 N.3   213  THR213     -0.1218
     37  CA        55.9170   81.9580   60.9570 C.3   213  THR213      0.1862
     38  C         54.9320   81.8850   62.0850 C.2   213  THR213      0.2287
     39  O         55.2000   82.3470   63.1900 O.2   213  THR213     -0.2866
     40  CB        56.6750   80.6200   60.8700 C.3   213  THR213      0.1770
     41  OG1       57.7950   80.6540   61.7440 O.3   213  THR213     -0.2211
     42  CG2       57.1360   80.3440   59.4420 C.3   213  THR213      0.0375
     43  N         52.3230   79.1910   64.0400 N.3   215  ASP215     -0.1239
     44  CA        51.9700   77.7910   64.2540 C.3   215  ASP215      0.1674
     45  C         50.6720   77.7630   65.0680 C.2   215  ASP215      0.2266
     46  O         50.1080   78.8220   65.3770 O.2   215  ASP215     -0.2867
     47  CB        53.0920   77.0670   65.0030 C.3   215  ASP215      0.1410
     48  CG        53.1140   75.5660   64.7210 C.2   215  ASP215      0.3668
     49  OD1       52.2040   75.0430   64.0200 O.co2 215  ASP215     -0.2456
     50  OD2       54.0660   74.9040   65.1920 O.co2 215  ASP215     -0.2456
     51  N         55.2030   79.4850   70.2820 N.3   219  PRO219     -0.2102
     52  CA        56.5160   79.2700   69.6670 C.3   219  PRO219      0.1504
     53  C         57.5140   78.7270   70.6850 C.2   219  PRO219      0.2575
     54  O         57.5830   79.2050   71.8240 O.2   219  PRO219     -0.2718
     55  CB        56.9190   80.6810   69.2270 C.3   219  PRO219      0.0282
     56  CG        55.6490   81.3300   68.9380 C.3   219  PRO219      0.0208
     57  CD        54.7860   80.8870   70.1070 C.3   219  PRO219      0.0893
     58  N         58.2460   77.6900   70.2920 N.am  220  ALA220     -0.1980
     59  CA        59.2550   77.1050   71.1620 C.3   220  ALA220      0.1597
     60  C         60.5600   77.8910   71.0330 C.2   220  ALA220      0.2287
     61  O         60.7410   78.6290   70.0680 O.2   220  ALA220     -0.2864
     62  CB        59.4920   75.6440   70.7780 C.3   220  ALA220      0.0319
     63  N         64.1400   78.2010   69.9730 N.3   222  GLN222     -0.1245
     64  CA        64.7920   77.4550   68.9010 C.3   222  GLN222      0.1566
     65  C         65.9320   78.1960   68.2200 C.2   222  GLN222      0.2260
     66  O         66.0620   79.4180   68.3480 O.2   222  GLN222     -0.2867
     67  CB        63.7400   77.1040   67.8430 C.3   222  GLN222      0.0367
     68  CG        62.9750   78.3170   67.3310 C.3   222  GLN222      0.0905
     69  CD        61.7670   77.9530   66.4940 C.2   222  GLN222      0.2608
     70  OE1       61.8730   77.7580   65.2880 O.2   222  GLN222     -0.2717
     71  NE2       60.5980   77.8840   67.1320 N.am  222  GLN222     -0.0878
     72  N         68.2290   78.4190   64.3880 N.3   224  LYS224     -0.1245
     73  CA        68.0630   78.1930   62.9570 C.3   224  LYS224      0.1561
     74  C         69.1930   78.8960   62.2420 C.2   224  LYS224      0.2260
     75  O         69.5880   80.0070   62.6330 O.2   224  LYS224     -0.2867
     76  CB        66.7100   78.7140   62.4420 C.3   224  LYS224      0.0271
     77  CG        66.3980   80.1630   62.8160 C.3   224  LYS224      0.0035
     78  CD        65.3210   80.1940   63.9000 C.3   224  LYS224      0.0206
     79  CE        65.5640   81.2860   64.9620 C.3   224  LYS224      0.1093
     80  NZ        65.2940   82.6450   64.4320 N.3   224  LYS224     -0.1314
     81  N         60.9810   71.7320   50.1150 N.3   275  TYR275     -0.1241
     82  CA        60.2730   70.7320   50.8990 C.3   275  TYR275      0.1605
     83  C         60.3340   69.3550   50.2500 C.2   275  TYR275      0.2264
     84  O         59.4370   68.5220   50.4360 O.2   275  TYR275     -0.2867
     85  CB        58.8320   71.1880   51.1310 C.3   275  TYR275      0.0534
     86  CG        58.7680   72.4350   51.9890 C.ar  275  TYR275     -0.0201
     87  CD1       59.1340   72.3920   53.3390 C.ar  275  TYR275     -0.0009
     88  CD2       58.3740   73.6640   51.4510 C.ar  275  TYR275     -0.0009
     89  CE1       59.1120   73.5420   54.1390 C.ar  275  TYR275      0.0417
     90  CE2       58.3470   74.8210   52.2440 C.ar  275  TYR275      0.0417
     91  CZ        58.7170   74.7540   53.5830 C.ar  275  TYR275      0.1957
     92  OH        58.7000   75.9000   54.3660 O.3   275  TYR275     -0.2866
     93  N         63.9120   68.4170   68.7220 N.3   310  TRP310     -0.1227
     94  CA        63.3060   68.2410   67.3950 C.3   310  TRP310      0.1737
     95  C         64.1590   69.0870   66.4420 C.2   310  TRP310      0.2596
     96  O         64.9150   69.9560   66.8980 O.2   310  TRP310     -0.2718
     97  CB        61.8540   68.7460   67.3810 C.3   310  TRP310      0.0564
     98  CG        61.6710   70.1510   67.9390 C.ar  310  TRP310      0.0003
     99  CD1       61.4910   70.4920   69.2490 C.ar  310  TRP310      0.0946
    100  CD2       61.6590   71.3870   67.2000 C.ar  310  TRP310      0.0152
    101  NE1       61.3660   71.8610   69.3780 N.ar  310  TRP310     -0.2442
    102  CE2       61.4630   72.4340   68.1370 C.ar  310  TRP310      0.0810
    103  CE3       61.7940   71.7130   65.8430 C.ar  310  TRP310      0.0012
    104  CZ2       61.3980   73.7820   67.7560 C.ar  310  TRP310      0.0191
    105  CZ3       61.7300   73.0540   65.4630 C.ar  310  TRP310      0.0001
    106  CH2       61.5330   74.0690   66.4180 C.ar  310  TRP310      0.0015
    107  N         64.0650   68.8280   65.1390 N.am  311  SER311     -0.1938
    108  CA        64.8320   69.6000   64.1650 C.3   311  SER311      0.2055
    109  C         64.2590   69.4770   62.7730 C.2   311  SER311      0.2643
    110  O         63.4290   68.6210   62.5130 O.2   311  SER311     -0.2714
    111  CB        66.3210   69.2160   64.1700 C.3   311  SER311      0.2130
    112  OG        66.5300   67.8440   63.8800 O.3   311  SER311     -0.2179
    113  N         64.7350   70.3300   61.8770 N.am  312  TRP312     -0.1973
    114  CA        64.2730   70.3500   60.4990 C.3   312  TRP312      0.1640
    115  C         65.3880   70.8310   59.5800 C.2   312  TRP312      0.2290
    116  O         66.3370   71.4590   60.0350 O.2   312  TRP312     -0.2864
    117  CB        63.0870   71.3130   60.3750 C.3   312  TRP312      0.0576
    118  CG        63.4070   72.7040   60.8960 C.ar  312  TRP312      0.0006
    119  CD1       63.2510   73.1600   62.1770 C.ar  312  TRP312      0.0946
    120  CD2       63.9660   73.7870   60.1520 C.ar  312  TRP312      0.0152
    121  NE1       63.6790   74.4630   62.2760 N.ar  312  TRP312     -0.2442
    122  CE2       64.1240   74.8750   61.0480 C.ar  312  TRP312      0.0810
    123  CE3       64.3520   73.9510   58.8100 C.ar  312  TRP312      0.0012
    124  CZ2       64.6520   76.1040   60.6450 C.ar  312  TRP312      0.0191
    125  CZ3       64.8790   75.1850   58.4110 C.ar  312  TRP312      0.0001
    126  CH2       65.0220   76.2360   59.3280 C.ar  312  TRP312      0.0015
    127  N         65.7370   72.2490   55.2800 N.3   314  ILE314     -0.1245
    128  CA        65.0810   72.5430   54.0070 C.3   314  ILE314      0.1561
    129  C         66.1430   72.8860   52.9710 C.2   314  ILE314      0.2260
    130  O         67.2380   73.3670   53.3080 O.2   314  ILE314     -0.2867
    131  CB        64.0930   73.7630   54.0790 C.3   314  ILE314      0.0252
    132  CG1       64.8620   75.0610   54.4130 C.3   314  ILE314      0.0019
    133  CG2       62.9350   73.4790   55.0660 C.3   314  ILE314      0.0019
    134  CD1       64.0160   76.3230   54.4640 C.3   314  ILE314      0.0001
@<TRIPOS>BOND
     1    81    82    1
     2    83    84    2
     3    83    82    1
     4    82    85    1
     5    85    86    1
     6    88    86   ar
     7    88    90   ar
     8    86    87   ar
     9    90    91   ar
    10   129   130    2
    11   129   128    1
    12    87    89   ar
    13    91    89   ar
    14    91    92    1
    15   128   131    1
    16   128   127    1
    17   131   132    1
    18   131   133    1
    19   132   134    1
    20     8     9    2
    21     8     7    1
    22     5     2    1
    23     4     3    2
    24    24    23    2
    25     1     2    1
    26    23    22    1
    27     3     2    1
    28     3     6   am
    29     7     6    1
    30     7    10    1
    31   125   123   ar
    32   125   126   ar
    33    21    22    1
    34    22    25    1
    35    15    14    1
    36    15    16    2
    37   123   120   ar
    38    14    13    1
    39    14    17    1
    40    12    10    1
    41    10    11    1
    42    20    18    1
    43   126   124   ar
    44    42    40    1
    45   115   116    2
    46   115   114    1
    47    25    26    1
    48    25    27    1
    49    17    18    1
    50   120   118   ar
    51   120   122   ar
    52   117   114    1
    53   117   118    1
    54    18    19    1
    55   114   113    1
    56   124   122   ar
    57    40    37    1
    58    40    41    1
    59   118   119   ar
    60    37    36    1
    61    37    38    1
    62   122   121   ar
    63   113   109   am
    64    38    39    2
    65   119   121   ar
    66    74    75    2
    67    74    73    1
    68    76    77    1
    69    76    73    1
    70   110   109    2
    71   109   108    1
    72    77    78    1
    73    73    72    1
    74   112   111    1
    75    78    79    1
    76    31    30    2
    77    49    48   ar
    78    43    44    1
    79   108   111    1
    80   108   107    1
    81    44    47    1
    82    44    45    1
    83    80    79    1
    84    48    47    1
    85    48    50   ar
    86    45    46    2
    87   107    95   am
    88    30    29    1
    89    70    69    2
    90   105   103   ar
    91   105   106   ar
    92   103   100   ar
    93    29    28    1
    94    29    32    1
    95    35    33    1
    96   106   104   ar
    97    95    96    2
    98    95    94    1
    99    69    71   am
   100    69    68    1
   101    32    33    1
   102   100    98   ar
   103   100   102   ar
   104    33    34    1
   105    68    67    1
   106    97    94    1
   107    97    98    1
   108    94    93    1
   109   104   102   ar
   110    67    64    1
   111    98    99   ar
   112   102   101   ar
   113    65    66    2
   114    65    64    1
   115    64    63    1
   116    56    55    1
   117    56    57    1
   118    55    52    1
   119    99   101   ar
   120    52    51    1
   121    52    53    1
   122    61    60    2
   123    57    51    1
   124    58    53   am
   125    58    59    1
   126    53    54    2
   127    62    59    1
   128    60    59    1
