@<TRIPOS>MOLECULE
tmp/1fceA02.pdb
 149 144 0 0 0
SMALL
GASTEIGER

@<TRIPOS>ATOM
      1  N         82.7720   93.0420   56.2240 N.3    36  HIS36      -0.1241
      2  CA        82.2820   93.1920   54.8520 C.3    36  HIS36       0.1621
      3  C         83.0190   94.4030   54.2410 C.2    36  HIS36       0.2264
      4  O         83.3710   94.4060   53.0660 O.2    36  HIS36      -0.2867
      5  CB        80.7660   93.4370   54.8370 C.3    36  HIS36       0.0745
      6  CG        80.2140   93.7560   53.4780 C.ar   36  HIS36       0.0817
      7  ND1       79.9160   92.7860   52.5420 N.ar   36  HIS36      -0.2268
      8  CD2       79.9430   94.9420   52.8850 C.ar   36  HIS36       0.1154
      9  CE1       79.4880   93.3590   51.4330 C.ar   36  HIS36       0.1986
     10  NE2       79.4940   94.6690   51.6140 N.ar   36  HIS36      -0.2212
     11  N         73.6900   97.1170   51.6920 N.3    44  GLU44      -0.1231
     12  CA        73.5550   96.6100   50.3270 C.3    44  GLU44       0.1699
     13  C         73.0800   95.1680   50.2220 C.2    44  GLU44       0.2592
     14  O         72.3530   94.8440   49.3000 O.2    44  GLU44      -0.2718
     15  CB        74.8130   96.8460   49.4840 C.3    44  GLU44       0.0402
     16  CG        76.0750   96.1530   49.9460 C.3    44  GLU44       0.1161
     17  CD        77.2990   96.7410   49.2690 C.2    44  GLU44       0.3649
     18  OE1       77.1940   97.8790   48.7490 O.co2  44  GLU44      -0.2457
     19  OE2       78.3620   96.0840   49.2640 O.co2  44  GLU44      -0.2457
     20  N         73.5860   94.2970   51.0890 N.am   45  ALA45      -0.1966
     21  CA        73.1870   92.8810   51.1800 C.3    45  ALA45       0.1713
     22  C         73.2010   92.8260   52.7170 C.2    45  ALA45       0.2458
     23  O         72.1540   92.5840   53.3300 O.2    45  ALA45      -0.2730
     24  CB        74.2040   91.9550   50.5260 C.3    45  ALA45       0.0333
     25  N         74.3880   92.9420   53.3640 N.am   46  PRO46      -0.2727
     26  CA        74.2730   92.9460   54.8240 C.3    46  PRO46       0.1402
     27  C         73.8840   94.4320   55.0760 C.2    46  PRO46       0.2269
     28  O         73.9870   95.2510   54.1600 O.2    46  PRO46      -0.2865
     29  CB        75.6990   92.6460   55.2830 C.3    46  PRO46       0.0296
     30  CG        76.5370   93.2000   54.2070 C.3    46  PRO46       0.0237
     31  CD        75.7990   92.7710   52.9650 C.3    46  PRO46       0.0939
     32  N         80.2620   88.0060   56.2560 N.3    53  THR53      -0.1218
     33  CA        79.4540   87.0230   55.5500 C.3    53  THR53       0.1862
     34  C         80.3120   85.8120   55.2270 C.2    53  THR53       0.2287
     35  O         81.5420   85.8840   55.3080 O.2    53  THR53      -0.2866
     36  CB        78.9360   87.5860   54.2120 C.3    53  THR53       0.1770
     37  OG1       80.0430   88.0640   53.4370 O.3    53  THR53      -0.2211
     38  CG2       77.9350   88.7120   54.4450 C.3    53  THR53       0.0375
     39  N         80.6220   84.7910   52.4290 N.3    55  GLU55      -0.1245
     40  CA        81.1960   85.2430   51.1660 C.3    55  GLU55       0.1567
     41  C         82.5830   85.8480   51.4190 C.2    55  GLU55       0.2260
     42  O         83.5430   85.5330   50.7210 O.2    55  GLU55      -0.2867
     43  CB        80.2620   86.2840   50.5530 C.3    55  GLU55       0.0388
     44  CG        80.8490   87.1170   49.4510 C.3    55  GLU55       0.1160
     45  CD        79.8700   88.1840   49.0160 C.2    55  GLU55       0.3649
     46  OE1       78.9320   87.8450   48.2540 O.co2  55  GLU55      -0.2457
     47  OE2       80.0300   89.3390   49.4650 O.co2  55  GLU55      -0.2457
     48  N         66.3040   95.0410   44.8530 N.3   406  PRO406     -0.2116
     49  CA        66.1970   95.0990   43.3930 C.3   406  PRO406      0.1372
     50  C         66.3040   93.6790   42.8150 C.2   406  PRO406      0.2244
     51  O         66.6530   92.7420   43.5410 O.2   406  PRO406     -0.2868
     52  CB        67.4070   95.9540   43.0130 C.3   406  PRO406      0.0268
     53  CG        68.4330   95.4860   43.9630 C.3   406  PRO406      0.0207
     54  CD        67.6640   95.4240   45.2810 C.3   406  PRO406      0.0892
     55  N         72.1830   93.1030   38.5940 N.3   411  TRP411     -0.1241
     56  CA        73.5660   93.4710   38.9250 C.3   411  TRP411      0.1605
     57  C         74.5170   92.6890   38.0200 C.2   411  TRP411      0.2264
     58  O         74.4620   91.4550   37.9560 O.2   411  TRP411     -0.2867
     59  CB        73.8950   93.1240   40.3810 C.3   411  TRP411      0.0550
     60  CG        75.3380   93.4370   40.8060 C.ar  411  TRP411      0.0003
     61  CD1       76.0110   94.6200   40.6400 C.ar  411  TRP411      0.0946
     62  CD2       76.2280   92.5760   41.5430 C.ar  411  TRP411      0.0152
     63  NE1       77.2490   94.5540   41.2460 N.ar  411  TRP411     -0.2442
     64  CE2       77.4080   93.3130   41.8030 C.ar  411  TRP411      0.0810
     65  CE3       76.1410   91.2530   42.0060 C.ar  411  TRP411      0.0012
     66  CZ2       78.4900   92.7760   42.5090 C.ar  411  TRP411      0.0191
     67  CZ3       77.2190   90.7170   42.7060 C.ar  411  TRP411      0.0001
     68  CH2       78.3780   91.4800   42.9510 C.ar  411  TRP411      0.0015
     69  N         76.8970   89.2840   39.0230 N.3   414  MET414     -0.1245
     70  CA        76.5590   87.8640   38.9130 C.3   414  MET414      0.1570
     71  C         77.1870   87.2560   37.6540 C.2   414  MET414      0.2261
     72  O         77.6150   86.1060   37.6720 O.2   414  MET414     -0.2867
     73  CB        75.0410   87.6490   38.9180 C.3   414  MET414      0.0387
     74  CG        74.3710   87.9250   40.2790 C.3   414  MET414      0.0595
     75  SD        74.9840   86.8150   41.5850 S.3   414  MET414     -0.1393
     76  CE        73.7920   87.1070   42.8720 C.3   414  MET414      0.0692
     77  N         81.2400   86.8060   38.5200 N.3   417  TRP417     -0.1241
     78  CA        81.4950   85.8580   39.6010 C.3   417  TRP417      0.1605
     79  C         81.2510   84.4340   39.1180 C.2   417  TRP417      0.2264
     80  O         82.0570   83.5360   39.3360 O.2   417  TRP417     -0.2867
     81  CB        80.5540   86.1350   40.7700 C.3   417  TRP417      0.0550
     82  CG        81.0350   87.2000   41.6750 C.ar  417  TRP417      0.0003
     83  CD1       82.1770   87.9370   41.5480 C.ar  417  TRP417      0.0946
     84  CD2       80.4240   87.6100   42.8980 C.ar  417  TRP417      0.0152
     85  NE1       82.3200   88.7780   42.6260 N.ar  417  TRP417     -0.2442
     86  CE2       81.2600   88.5950   43.4730 C.ar  417  TRP417      0.0810
     87  CE3       79.2550   87.2340   43.5690 C.ar  417  TRP417      0.0012
     88  CZ2       80.9650   89.2110   44.6940 C.ar  417  TRP417      0.0191
     89  CZ3       78.9630   87.8450   44.7810 C.ar  417  TRP417      0.0001
     90  CH2       79.8180   88.8260   45.3310 C.ar  417  TRP417      0.0015
     91  N         76.9700   97.9790   34.6560 N.3   461  SER461     -0.1217
     92  CA        76.6910   98.0170   36.0760 C.3   461  SER461      0.1889
     93  C         75.3050   97.4190   36.3600 C.2   461  SER461      0.2288
     94  O         75.1790   96.4340   37.0980 O.2   461  SER461     -0.2866
     95  CB        76.7710   99.4650   36.5570 C.3   461  SER461      0.2089
     96  OG        76.5870   99.5290   37.9490 O.3   461  SER461     -0.2183
     97  N         82.7150   99.7480   39.0980 N.3   494  ASP494     -0.1239
     98  CA        82.7410   98.8720   40.2630 C.3   494  ASP494      0.1674
     99  C         84.0670   98.1040   40.1820 C.2   494  ASP494      0.2266
    100  O         84.2610   97.2680   39.2920 O.2   494  ASP494     -0.2867
    101  CB        81.5710   97.8980   40.2220 C.3   494  ASP494      0.1410
    102  CG        81.4570   97.0890   41.4860 C.2   494  ASP494      0.3668
    103  OD1       82.4580   96.4820   41.9200 O.co2 494  ASP494     -0.2456
    104  OD2       80.3510   97.0610   42.0580 O.co2 494  ASP494     -0.2456
    105  N         81.5220  106.4810   44.7410 N.3   542  GLU542     -0.1245
    106  CA        80.3070  105.9880   44.1080 C.3   542  GLU542      0.1567
    107  C         79.0870  106.5750   44.7870 C.2   542  GLU542      0.2260
    108  O         79.1140  106.9100   45.9760 O.2   542  GLU542     -0.2867
    109  CB        80.2330  104.4590   44.1810 C.3   542  GLU542      0.0388
    110  CG        80.0530  103.9340   45.5800 C.3   542  GLU542      0.1160
    111  CD        80.0720  102.4220   45.6420 C.2   542  GLU542      0.3649
    112  OE1       81.1760  101.8400   45.7110 O.co2 542  GLU542     -0.2457
    113  OE2       78.9780  101.8150   45.6330 O.co2 542  GLU542     -0.2457
    114  N         75.3790  106.4010   46.3180 N.3   544  ARG544     -0.1245
    115  CA        74.5680  105.4400   47.0600 C.3   544  ARG544      0.1563
    116  C         73.1100  105.8660   46.8750 C.2   544  ARG544      0.2260
    117  O         72.4980  106.4680   47.7680 O.2   544  ARG544     -0.2867
    118  CB        74.9700  105.4520   48.5410 C.3   544  ARG544      0.0307
    119  CG        76.4760  105.4460   48.7670 C.3   544  ARG544      0.0489
    120  CD        77.1150  104.1570   48.2500 C.3   544  ARG544      0.2205
    121  NE        76.9360  103.0650   49.1930 N.pl3 544  ARG544     -0.0865
    122  CZ        76.6460  101.8150   48.8550 C.cat 544  ARG544      0.5346
    123  NH1       76.4940  101.4820   47.5860 N.pl3 544  ARG544      0.1354
    124  NH2       76.5240  100.8960   49.7960 N.pl3 544  ARG544      0.1354
    125  N         85.3780   97.4110   50.2710 N.3   609  ARG609     -0.1245
    126  CA        84.7120   96.1220   50.5020 C.3   609  ARG609      0.1563
    127  C         85.7850   95.0510   50.4610 C.2   609  ARG609      0.2260
    128  O         86.5260   94.9610   49.4840 O.2   609  ARG609     -0.2867
    129  CB        83.6910   95.8370   49.3960 C.3   609  ARG609      0.0307
    130  CG        82.5830   96.8590   49.2830 C.3   609  ARG609      0.0489
    131  CD        81.6820   96.5630   48.0950 C.3   609  ARG609      0.2205
    132  NE        80.5310   97.4640   48.0200 N.pl3 609  ARG609     -0.0865
    133  CZ        80.5040   98.6300   47.3710 C.cat 609  ARG609      0.5346
    134  NH1       81.5800   99.0770   46.7250 N.pl3 609  ARG609      0.1354
    135  NH2       79.3800   99.3360   47.3360 N.pl3 609  ARG609      0.1354
    136  N         85.7370   91.8270   49.9030 N.3   611  TRP611     -0.1241
    137  CA        85.7160   90.9550   48.7490 C.3   611  TRP611      0.1605
    138  C         86.2890   91.6250   47.5030 C.2   611  TRP611      0.2264
    139  O         86.9580   90.9770   46.7070 O.2   611  TRP611     -0.2867
    140  CB        84.3030   90.4100   48.4870 C.3   611  TRP611      0.0550
    141  CG        83.3140   91.3610   47.8570 C.ar  611  TRP611      0.0003
    142  CD1       82.3040   92.0310   48.4970 C.ar  611  TRP611      0.0946
    143  CD2       83.1540   91.6430   46.4530 C.ar  611  TRP611      0.0152
    144  NE1       81.5260   92.6880   47.5790 N.ar  611  TRP611     -0.2442
    145  CE2       82.0210   92.4690   46.3210 C.ar  611  TRP611      0.0810
    146  CE3       83.8540   91.2670   45.2950 C.ar  611  TRP611      0.0012
    147  CZ2       81.5650   92.9290   45.0740 C.ar  611  TRP611      0.0191
    148  CZ3       83.3980   91.7230   44.0580 C.ar  611  TRP611      0.0001
    149  CH2       82.2640   92.5440   43.9600 C.ar  611  TRP611      0.0015
@<TRIPOS>BOND
     1    91    92    1
     2    92    93    1
     3    92    95    1
     4    93    94    2
     5    95    96    1
     6    71    72    2
     7    71    70    1
     8    58    57    2
     9    57    56    1
    10    77    78    1
    11    55    56    1
    12    70    73    1
    13    70    69    1
    14    73    74    1
    15    56    59    1
    16    97    98    1
    17    79    80    2
    18    79    78    1
    19   100    99    2
    20    78    81    1
    21    99    98    1
    22   101    98    1
    23   101   102    1
    24    74    75    1
    25    59    60    1
    26    61    60   ar
    27    61    63   ar
    28    81    82    1
    29    60    62   ar
    30    63    64   ar
    31   102   103   ar
    32   102   104   ar
    33    62    64   ar
    34    62    65   ar
    35    83    82   ar
    36    83    85   ar
    37    75    76    1
    38    82    84   ar
    39    64    66   ar
    40    65    67   ar
    41    66    68   ar
    42    85    86   ar
    43    67    68   ar
    44    50    49    1
    45    50    51    2
    46    84    86   ar
    47    84    87   ar
    48    52    49    1
    49    52    53    1
    50    49    48    1
    51    86    88   ar
    52    87    89   ar
    53   149   148   ar
    54   149   147   ar
    55    53    54    1
    56   148   146   ar
    57   106   109    1
    58   106   105    1
    59   106   107    1
    60   109   110    1
    61    88    90   ar
    62    89    90   ar
    63   107   108    2
    64    48    54    1
    65   147   145   ar
    66   146   143   ar
    67   110   111    1
    68   113   111   ar
    69   111   112   ar
    70   114   115    1
    71   145   143   ar
    72   145   144   ar
    73   143   141   ar
    74   139   138    2
    75   134   133    1
    76   116   115    1
    77   116   117    2
    78   115   118    1
    79   135   133    1
    80   133   132    2
    81   138   137    1
    82   144   142   ar
    83   123   122    1
    84   141   140    1
    85   141   142   ar
    86   132   131    1
    87   131   130    1
    88   120   119    1
    89   120   121    1
    90    46    45   ar
    91   140   137    1
    92   118   119    1
    93   137   136    1
    94    18    17   ar
    95   122   121    2
    96   122   124    1
    97    45    44    1
    98    45    47   ar
    99    19    17   ar
   100    17    16    1
   101   130   129    1
   102    14    13    2
   103   129   126    1
   104    44    43    1
   105   128   127    2
   106    15    16    1
   107    15    12    1
   108    13    12    1
   109    13    20   am
   110   125   126    1
   111    12    11    1
   112   127   126    1
   113    24    21    1
   114    43    40    1
   115    42    41    2
   116    20    21    1
   117    40    41    1
   118    40    39    1
   119    21    22    1
   120     9    10   ar
   121     9     7   ar
   122    10     8   ar
   123     7     6   ar
   124    22    23    2
   125    22    25   am
   126     8     6   ar
   127    31    25    1
   128    31    30    1
   129     4     3    2
   130    25    26    1
   131    37    36    1
   132     6     5    1
   133    28    27    2
   134    30    29    1
   135    36    38    1
   136    36    33    1
   137     3     2    1
   138    26    27    1
   139    26    29    1
   140     5     2    1
   141     2     1    1
   142    34    35    2
   143    34    33    1
   144    33    32    1
