@<TRIPOS>MOLECULE
tmp/1fceA03.pdb
 114 112 0 0 0
SMALL
GASTEIGER

@<TRIPOS>ATOM
      1  N         72.1830   93.1030   38.5940 N.3   411  TRP411     -0.1241
      2  CA        73.5660   93.4710   38.9250 C.3   411  TRP411      0.1605
      3  C         74.5170   92.6890   38.0200 C.2   411  TRP411      0.2264
      4  O         74.4620   91.4550   37.9560 O.2   411  TRP411     -0.2867
      5  CB        73.8950   93.1240   40.3810 C.3   411  TRP411      0.0550
      6  CG        75.3380   93.4370   40.8060 C.ar  411  TRP411      0.0003
      7  CD1       76.0110   94.6200   40.6400 C.ar  411  TRP411      0.0946
      8  CD2       76.2280   92.5760   41.5430 C.ar  411  TRP411      0.0152
      9  NE1       77.2490   94.5540   41.2460 N.ar  411  TRP411     -0.2442
     10  CE2       77.4080   93.3130   41.8030 C.ar  411  TRP411      0.0810
     11  CE3       76.1410   91.2530   42.0060 C.ar  411  TRP411      0.0012
     12  CZ2       78.4900   92.7760   42.5090 C.ar  411  TRP411      0.0191
     13  CZ3       77.2190   90.7170   42.7060 C.ar  411  TRP411      0.0001
     14  CH2       78.3780   91.4800   42.9510 C.ar  411  TRP411      0.0015
     15  N         76.9700   97.9790   34.6560 N.3   461  SER461     -0.1202
     16  CA        76.6910   98.0170   36.0760 C.3   461  SER461      0.2020
     17  C         75.3050   97.4190   36.3600 C.2   461  SER461      0.2619
     18  O         75.1790   96.4340   37.0980 O.2   461  SER461     -0.2717
     19  CB        76.7710   99.4650   36.5570 C.3   461  SER461      0.2103
     20  OG        76.5870   99.5290   37.9490 O.3   461  SER461     -0.2182
     21  N         74.2780   98.0290   35.7730 N.am  462  THR462     -0.1952
     22  CA        72.9000   97.5840   35.9300 C.3   462  THR462      0.1897
     23  C         72.4510   97.0970   34.5550 C.2   462  THR462      0.2313
     24  O         72.7460   97.7290   33.5340 O.2   462  THR462     -0.2863
     25  CB        71.9940   98.7510   36.4130 C.3   462  THR462      0.1794
     26  OG1       72.4880   99.2490   37.6610 O.3   462  THR462     -0.2208
     27  CG2       70.5750   98.2910   36.6380 C.3   462  THR462      0.0378
     28  N         72.9980  100.9410   32.7590 N.3   490  ASN490     -0.1225
     29  CA        74.0240  101.9390   33.0130 C.3   490  ASN490      0.1785
     30  C         75.3920  101.3190   33.2550 C.2   490  ASN490      0.2597
     31  O         75.5020  100.1170   33.5180 O.2   490  ASN490     -0.2718
     32  CB        73.6300  102.9340   34.1150 C.3   490  ASN490      0.1169
     33  CG        73.2070  102.2670   35.3950 C.2   490  ASN490      0.2627
     34  OD1       73.9270  101.4340   35.9510 O.2   490  ASN490     -0.2716
     35  ND2       72.0310  102.6430   35.8900 N.am  490  ASN490     -0.0877
     36  N         76.4300  102.1280   33.0540 N.am  491  TYR491     -0.1962
     37  CA        77.8070  101.6940   33.2420 C.3   491  TYR491      0.1771
     38  C         78.3620  102.3240   34.5050 C.2   491  TYR491      0.2620
     39  O         77.8130  103.2860   35.0370 O.2   491  TYR491     -0.2715
     40  CB        78.6660  102.0850   32.0400 C.3   491  TYR491      0.0574
     41  CG        78.1820  101.4940   30.7410 C.ar  491  TYR491     -0.0198
     42  CD1       77.0910  102.0490   30.0680 C.ar  491  TYR491     -0.0009
     43  CD2       78.7920  100.3690   30.1910 C.ar  491  TYR491     -0.0009
     44  CE1       76.6180  101.5010   28.8920 C.ar  491  TYR491      0.0417
     45  CE2       78.3210   99.8090   29.0030 C.ar  491  TYR491      0.0417
     46  CZ        77.2310  100.3880   28.3680 C.ar  491  TYR491      0.1957
     47  OH        76.7320   99.8690   27.2130 O.3   491  TYR491     -0.2866
     48  N         79.4580  101.7780   34.9950 N.am  492  GLY492     -0.1940
     49  CA        80.0390  102.3160   36.2030 C.3   492  GLY492      0.2014
     50  C         81.4420  101.8110   36.3490 C.2   492  GLY492      0.2640
     51  O         81.9730  101.1590   35.4470 O.2   492  GLY492     -0.2714
     52  N         82.0270  102.0750   37.5080 N.am  493  THR493     -0.1936
     53  CA        83.3870  101.6470   37.7700 C.3   493  THR493      0.2028
     54  C         83.4690  100.8420   39.0490 C.2   493  THR493      0.2642
     55  O         84.1720  101.2040   39.9820 O.2   493  THR493     -0.2714
     56  CB        84.3390  102.8570   37.8130 C.3   493  THR493      0.1808
     57  OG1       84.0840  103.6840   36.6670 O.3   493  THR493     -0.2208
     58  CG2       85.7860  102.3940   37.7490 C.3   493  THR493      0.0379
     59  N         82.7150   99.7480   39.0980 N.am  494  ASP494     -0.1971
     60  CA        82.7410   98.8720   40.2630 C.3   494  ASP494      0.1709
     61  C         84.0670   98.1040   40.1820 C.2   494  ASP494      0.2293
     62  O         84.2610   97.2680   39.2920 O.2   494  ASP494     -0.2864
     63  CB        81.5710   97.8980   40.2220 C.3   494  ASP494      0.1436
     64  CG        81.4570   97.0890   41.4860 C.2   494  ASP494      0.3671
     65  OD1       82.4580   96.4820   41.9200 O.co2 494  ASP494     -0.2456
     66  OD2       80.3510   97.0610   42.0580 O.co2 494  ASP494     -0.2456
     67  N         81.5220  106.4810   44.7410 N.3   542  GLU542     -0.1231
     68  CA        80.3070  105.9880   44.1080 C.3   542  GLU542      0.1699
     69  C         79.0870  106.5750   44.7870 C.2   542  GLU542      0.2592
     70  O         79.1140  106.9100   45.9760 O.2   542  GLU542     -0.2718
     71  CB        80.2330  104.4590   44.1810 C.3   542  GLU542      0.0402
     72  CG        80.0530  103.9340   45.5800 C.3   542  GLU542      0.1161
     73  CD        80.0720  102.4220   45.6420 C.2   542  GLU542      0.3649
     74  OE1       81.1760  101.8400   45.7110 O.co2 542  GLU542     -0.2457
     75  OE2       78.9780  101.8150   45.6330 O.co2 542  GLU542     -0.2457
     76  N         78.0180  106.6930   44.0140 N.am  543  GLN543     -0.1966
     77  CA        76.7650  107.2070   44.5200 C.3   543  GLN543      0.1733
     78  C         75.9610  106.0920   45.1690 C.2   543  GLN543      0.2616
     79  O         75.9440  104.9550   44.6890 O.2   543  GLN543     -0.2715
     80  CB        75.9900  107.8720   43.3900 C.3   543  GLN543      0.0408
     81  CG        76.7700  109.0320   42.7670 C.3   543  GLN543      0.0908
     82  CD        75.8910  109.9560   41.9540 C.2   543  GLN543      0.2608
     83  OE1       75.9200  111.1840   42.1280 O.2   543  GLN543     -0.2717
     84  NE2       75.1030  109.3790   41.0540 N.am  543  GLN543     -0.0878
     85  N         75.3790  106.4010   46.3180 N.am  544  ARG544     -0.1963
     86  CA        74.5680  105.4400   47.0600 C.3   544  ARG544      0.1729
     87  C         73.1100  105.8660   46.8750 C.2   544  ARG544      0.2617
     88  O         72.4980  106.4680   47.7680 O.2   544  ARG544     -0.2715
     89  CB        74.9700  105.4520   48.5410 C.3   544  ARG544      0.0348
     90  CG        76.4760  105.4460   48.7670 C.3   544  ARG544      0.0492
     91  CD        77.1150  104.1570   48.2500 C.3   544  ARG544      0.2205
     92  NE        76.9360  103.0650   49.1930 N.pl3 544  ARG544     -0.0865
     93  CZ        76.6460  101.8150   48.8550 C.cat 544  ARG544      0.5346
     94  NH1       76.4940  101.4820   47.5860 N.pl3 544  ARG544      0.1354
     95  NH2       76.5240  100.8960   49.7960 N.pl3 544  ARG544      0.1354
     96  N         72.5760  105.5540   45.6940 N.am  545  GLY545     -0.1940
     97  CA        71.2180  105.9230   45.3360 C.3   545  GLY545      0.2014
     98  C         70.0580  105.4580   46.1970 C.2   545  GLY545      0.2638
     99  O         68.9800  106.0500   46.1270 O.2   545  GLY545     -0.2714
    100  N         70.2590  104.4160   47.0020 N.am  546  ASP546     -0.1971
    101  CA        69.1950  103.9020   47.8660 C.3   546  ASP546      0.1709
    102  C         69.2490  104.3840   49.2980 C.2   546  ASP546      0.2293
    103  O         68.3660  104.0520   50.0830 O.2   546  ASP546     -0.2864
    104  CB        69.1980  102.3700   47.8880 C.3   546  ASP546      0.1436
    105  CG        68.7150  101.7640   46.5840 C.2   546  ASP546      0.3671
    106  OD1       67.7440  102.2880   45.9840 O.co2 546  ASP546     -0.2456
    107  OD2       69.3190  100.7600   46.1470 O.co2 546  ASP546     -0.2456
    108  N         72.3660  113.0410   46.2030 N.3   602  VAL602     -0.1245
    109  CA        72.5620  111.6120   46.3880 C.3   602  VAL602      0.1561
    110  C         73.8630  111.4660   47.1840 C.2   602  VAL602      0.2260
    111  O         74.8950  112.0240   46.8080 O.2   602  VAL602     -0.2867
    112  CB        72.6590  110.8670   45.0270 C.3   602  VAL602      0.0252
    113  CG1       73.1010  109.4180   45.2240 C.3   602  VAL602      0.0019
    114  CG2       71.2950  110.8750   44.3500 C.3   602  VAL602      0.0019
@<TRIPOS>BOND
     1    47    46    1
     2    46    44   ar
     3    46    45   ar
     4    44    42   ar
     5    45    43   ar
     6    42    41   ar
     7    43    41   ar
     8    41    40    1
     9    40    37    1
    10    28    29    1
    11    29    30    1
    12    29    32    1
    13    36    37    1
    14    36    30   am
    15    37    38    1
    16    30    31    2
    17    24    23    2
    18    32    33    1
    19    38    48   am
    20    38    39    2
    21    23    22    1
    22    15    16    1
    23    48    49    1
    24    33    35   am
    25    33    34    2
    26    51    50    2
    27    21    22    1
    28    21    17   am
    29    22    25    1
    30    16    17    1
    31    16    19    1
    32    49    50    1
    33    50    52   am
    34    17    18    2
    35    25    27    1
    36    25    26    1
    37    19    20    1
    38    57    56    1
    39    52    53    1
    40    58    56    1
    41    53    56    1
    42    53    54    1
    43     4     3    2
    44     3     2    1
    45     1     2    1
    46     2     5    1
    47    54    59   am
    48    54    55    2
    49    59    60    1
    50    62    61    2
    51    61    60    1
    52    63    60    1
    53    63    64    1
    54     5     6    1
    55     7     6   ar
    56     7     9   ar
    57     6     8   ar
    58    84    82   am
    59     9    10   ar
    60    64    65   ar
    61    64    66   ar
    62     8    10   ar
    63     8    11   ar
    64    10    12   ar
    65    82    83    2
    66    82    81    1
    67    11    13   ar
    68    12    14   ar
    69    13    14   ar
    70    81    80    1
    71    80    77    1
    72    76    77    1
    73    76    69   am
    74    68    71    1
    75    68    67    1
    76    68    69    1
    77    71    72    1
    78   114   112    1
    79    77    78    1
    80    79    78    2
    81    69    70    2
    82   112   113    1
    83   112   109    1
    84    78    85   am
    85    97    96    1
    86    97    98    1
    87    72    73    1
    88    75    73   ar
    89    73    74   ar
    90    96    87   am
    91   106   105   ar
    92    99    98    2
    93   107   105   ar
    94    98   100   am
    95   108   109    1
    96    85    86    1
    97   109   110    1
    98   105   104    1
    99   111   110    2
   100    87    86    1
   101    87    88    2
   102   100   101    1
   103    86    89    1
   104    94    93    1
   105   101   104    1
   106   101   102    1
   107    91    90    1
   108    91    92    1
   109    89    90    1
   110    93    92    2
   111    93    95    1
   112   102   103    2
