@<TRIPOS>MOLECULE
tmp/1fcnA00.pdb
 133 122 0 0 0
SMALL
GASTEIGER

@<TRIPOS>ATOM
      1  N         27.2830    1.8860   16.1390 N.3    61  SER61      -0.1217
      2  CA        28.6190    2.3590   16.4480 C.3    61  SER61       0.1889
      3  C         29.4990    1.3650   17.2510 C.2    61  SER61       0.2288
      4  O         30.7050    1.5400   17.3170 O.2    61  SER61      -0.2866
      5  CB        28.5610    3.7690   17.0540 C.3    61  SER61       0.2089
      6  OG        28.1040    4.7560   16.0730 O.3    61  SER61      -0.2183
      7  N         32.4540    0.1690   15.7170 N.3    64  LYS64      -0.1245
      8  CA        33.7270    0.8800   15.8240 C.3    64  LYS64       0.1561
      9  C         34.8200    0.1300   16.5680 C.2    64  LYS64       0.2260
     10  O         35.9910    0.2920   16.2590 O.2    64  LYS64      -0.2867
     11  CB        33.5070    2.2470   16.4330 C.3    64  LYS64       0.0271
     12  CG        32.9300    3.1920   15.4290 C.3    64  LYS64       0.0035
     13  CD        32.2700    4.3280   16.1010 C.3    64  LYS64       0.0206
     14  CE        31.6250    5.2680   15.0950 C.3    64  LYS64       0.1093
     15  NZ        31.1730    6.5000   15.7920 N.3    64  LYS64      -0.1314
     16  N         29.5770   14.1970   12.3080 N.3   116  LEU116     -0.1231
     17  CA        29.1080   12.9660   12.9220 C.3   116  LEU116      0.1693
     18  C         28.6180   11.9310   11.9290 C.2   116  LEU116      0.2592
     19  O         28.6500   10.7430   12.2110 O.2   116  LEU116     -0.2718
     20  CB        27.9790   13.2230   13.8970 C.3   116  LEU116      0.0284
     21  CG        27.3980   11.8930   14.4200 C.3   116  LEU116      0.0019
     22  CD1       28.4990   10.9180   14.9890 C.3   116  LEU116      0.0001
     23  CD2       26.4110   12.2570   15.5170 C.3   116  LEU116      0.0001
     24  N         28.1500   12.3850   10.7700 N.am  117  LEU117     -0.1966
     25  CA        27.6470   11.4950    9.7280 C.3   117  LEU117      0.1728
     26  C         28.2220   11.9430    8.3880 C.2   117  LEU117      0.2616
     27  O         28.4710   13.1490    8.1820 O.2   117  LEU117     -0.2715
     28  CB        26.1240   11.5990    9.6370 C.3   117  LEU117      0.0311
     29  CG        25.3150   11.3630   10.9040 C.3   117  LEU117      0.0022
     30  CD1       23.8450   11.5490   10.6430 C.3   117  LEU117      0.0001
     31  CD2       25.5950    9.9690   11.3910 C.3   117  LEU117      0.0001
     32  N         28.4780   10.9930    7.4870 N.am  118  VAL118     -0.1977
     33  CA        28.9300   11.3840    6.1580 C.3   118  VAL118      0.1596
     34  C         27.5800   11.7580    5.5370 C.2   118  VAL118      0.2287
     35  O         26.6240   10.9770    5.6110 O.2   118  VAL118     -0.2864
     36  CB        29.5470   10.2110    5.3740 C.3   118  VAL118      0.0276
     37  CG1       29.9250   10.6980    3.9860 C.3   118  VAL118      0.0022
     38  CG2       30.8020    9.6310    6.1300 C.3   118  VAL118      0.0022
     39  N         32.7970   13.0320   18.6300 N.3   147  GLU147     -0.1245
     40  CA        32.4480   11.6660   18.1950 C.3   147  GLU147      0.1567
     41  C         31.6690   11.6860   16.8690 C.2   147  GLU147      0.2260
     42  O         30.5360   12.1170   16.7590 O.2   147  GLU147     -0.2867
     43  CB        31.6540   10.9680   19.3410 C.3   147  GLU147      0.0388
     44  CG        30.7770    9.8400   18.8860 C.3   147  GLU147      0.1160
     45  CD        30.2820    8.9790   20.0520 C.2   147  GLU147      0.3649
     46  OE1       31.0160    8.7890   21.0930 O.co2 147  GLU147     -0.2457
     47  OE2       29.1410    8.4580   19.9140 O.co2 147  GLU147     -0.2457
     48  N         31.1800    9.3490   12.9070 N.3   149  ASN149     -0.1240
     49  CA        31.3050    8.1580   12.0170 C.3   149  ASN149      0.1653
     50  C         32.2550    8.4490   10.8620 C.2   149  ASN149      0.2266
     51  O         32.9720    7.5750   10.4010 O.2   149  ASN149     -0.2867
     52  CB        29.9680    7.7480   11.3950 C.3   149  ASN149      0.1155
     53  CG        29.0410    7.1190   12.3940 C.2   149  ASN149      0.2627
     54  OD1       29.4830    6.6530   13.4290 O.2   149  ASN149     -0.2716
     55  ND2       27.7400    7.0830   12.0850 N.am  149  ASN149     -0.0877
     56  N         19.0760   -1.1830    8.8280 N.3   208  VAL208     -0.1245
     57  CA        19.9860   -0.1000    8.4970 C.3   208  VAL208      0.1561
     58  C         20.1000    0.1170    6.9710 C.2   208  VAL208      0.2260
     59  O         20.3140   -0.8330    6.2030 O.2   208  VAL208     -0.2867
     60  CB        21.3900   -0.3590    9.1300 C.3   208  VAL208      0.0252
     61  CG1       22.0970   -1.4620    8.4270 C.3   208  VAL208      0.0019
     62  CG2       22.1960    0.9030    9.1140 C.3   208  VAL208      0.0019
     63  N         29.3620    1.8270   11.2980 N.3   218  TYR218     -0.1241
     64  CA        28.1680    1.3250   11.9870 C.3   218  TYR218      0.1605
     65  C         27.5380    0.0980   11.3570 C.2   218  TYR218      0.2264
     66  O         26.4680   -0.3120   11.7840 O.2   218  TYR218     -0.2867
     67  CB        27.1210    2.4300   12.0310 C.3   218  TYR218      0.0534
     68  CG        26.8290    3.0450   10.6610 C.ar  218  TYR218     -0.0201
     69  CD1       25.8250    2.5260    9.8160 C.ar  218  TYR218     -0.0009
     70  CD2       27.5510    4.1370   10.2110 C.ar  218  TYR218     -0.0009
     71  CE1       25.5530    3.0940    8.5570 C.ar  218  TYR218      0.0417
     72  CE2       27.2920    4.7120    8.9660 C.ar  218  TYR218      0.0417
     73  CZ        26.2910    4.1830    8.1490 C.ar  218  TYR218      0.1957
     74  OH        26.0220    4.7360    6.9360 O.3   218  TYR218     -0.2866
     75  N         22.8310   14.9920   20.8070 N.3   283  ALA283     -0.1245
     76  CA        23.2710   14.9350   19.3990 C.3   283  ALA283      0.1562
     77  C         24.6720   15.4680   18.9890 C.2   283  ALA283      0.2260
     78  O         25.1180   15.2410   17.8560 O.2   283  ALA283     -0.2867
     79  CB        22.1900   15.5840   18.5210 C.3   283  ALA283      0.0290
     80  N         28.9770    2.2350   23.2490 N.3   307  THR307     -0.1203
     81  CA        27.5770    2.3140   22.9730 C.3   307  THR307      0.1994
     82  C         27.4140    2.3640   21.4430 C.2   307  THR307      0.2618
     83  O         28.3610    2.7110   20.7340 O.2   307  THR307     -0.2717
     84  CB        26.9960    3.5300   23.7020 C.3   307  THR307      0.1784
     85  OG1       25.6300    3.2670   23.9470 O.3   307  THR307     -0.2211
     86  CG2       27.1090    4.7790   22.9100 C.3   307  THR307      0.0376
     87  N         26.2550    1.9780   20.9230 N.am  308  GLY308     -0.1942
     88  CA        26.0510    2.0120   19.4840 C.3   308  GLY308      0.2014
     89  C         24.5830    1.9590   19.1120 C.2   308  GLY308      0.2639
     90  O         23.7920    1.3410   19.8150 O.2   308  GLY308     -0.2714
     91  N         24.2020    2.6220   18.0280 N.am  309  ALA309     -0.1963
     92  CA        22.8090    2.5820   17.5890 C.3   309  ALA309      0.1728
     93  C         22.6030    2.6690   16.0850 C.2   309  ALA309      0.2617
     94  O         23.5000    3.0150   15.3110 O.2   309  ALA309     -0.2715
     95  CB        21.9970    3.7000   18.2620 C.3   309  ALA309      0.0334
     96  N         21.3940    2.2990   15.6940 N.am  310  THR310     -0.1937
     97  CA        20.9250    2.4150   14.3110 C.3   310  THR310      0.2028
     98  C         19.4830    2.8280   14.5070 C.2   310  THR310      0.2642
     99  O         18.9860    2.8600   15.6530 O.2   310  THR310     -0.2714
    100  CB        20.9850    1.0860   13.4710 C.3   310  THR310      0.1808
    101  OG1       20.1460    0.0800   14.0600 O.3   310  THR310     -0.2208
    102  CG2       22.4160    0.6120   13.3210 C.3   310  THR310      0.0379
    103  N         18.8080    3.1630   13.4120 N.am  311  GLY311     -0.1954
    104  CA        17.4280    3.5860   13.5340 C.3   311  GLY311      0.1869
    105  C         16.5760    2.5910   14.2870 C.2   311  GLY311      0.2309
    106  O         15.6450    2.9530   14.9980 O.2   311  GLY311     -0.2863
    107  N         16.0770    1.1260   19.4820 N.3   334  ASN334     -0.1240
    108  CA        17.0580    2.0930   19.9200 C.3   334  ASN334      0.1653
    109  C         16.4980    2.8790   21.1000 C.2   334  ASN334      0.2266
    110  O         15.8240    3.8780   20.8950 O.2   334  ASN334     -0.2867
    111  CB        17.4330    3.0470   18.7820 C.3   334  ASN334      0.1155
    112  CG        18.3140    4.2140   19.2500 C.2   334  ASN334      0.2627
    113  OD1       18.9120    4.1700   20.3290 O.2   334  ASN334     -0.2716
    114  ND2       18.4050    5.2590   18.4200 N.am  334  ASN334     -0.0877
    115  N         20.7250    5.7330   25.8660 N.3   337  ASN337     -0.1240
    116  CA        22.0080    5.2940   26.4160 C.3   337  ASN337      0.1653
    117  C         22.1480    5.2880   27.9300 C.2   337  ASN337      0.2266
    118  O         22.8120    4.4160   28.4810 O.2   337  ASN337     -0.2867
    119  CB        23.1640    6.1220   25.8880 C.3   337  ASN337      0.1155
    120  CG        23.4680    5.8330   24.4480 C.2   337  ASN337      0.2627
    121  OD1       23.5890    4.6630   24.0490 O.2   337  ASN337     -0.2716
    122  ND2       23.6020    6.8910   23.6450 N.am  337  ASN337     -0.0877
    123  N         20.8130    2.0870   29.2820 N.3   340  ARG340     -0.1245
    124  CA        21.6380    0.9050   29.0320 C.3   340  ARG340      0.1563
    125  C         22.7970    0.8350   30.0390 C.2   340  ARG340      0.2260
    126  O         23.0420   -0.1900   30.6740 O.2   340  ARG340     -0.2867
    127  CB        22.2240    0.9640   27.6290 C.3   340  ARG340      0.0307
    128  CG        21.2910    1.5270   26.6330 C.3   340  ARG340      0.0489
    129  CD        21.8740    1.3620   25.2450 C.3   340  ARG340      0.2205
    130  NE        21.1650    2.1670   24.2650 N.pl3 340  ARG340     -0.0865
    131  CZ        21.6180    2.4010   23.0470 C.cat 340  ARG340      0.5346
    132  NH1       22.7750    1.8890   22.6440 N.pl3 340  ARG340      0.1354
    133  NH2       20.9290    3.1810   22.2430 N.pl3 340  ARG340      0.1354
@<TRIPOS>BOND
     1    37    36    1
     2    36    38    1
     3    36    33    1
     4    34    35    2
     5    34    33    1
     6    33    32    1
     7    59    58    2
     8    74    73    1
     9    58    57    1
    10    32    26   am
    11    73    71   ar
    12    73    72   ar
    13    27    26    2
    14    26    25    1
    15    61    60    1
    16    57    56    1
    17    57    60    1
    18    71    69   ar
    19    72    70   ar
    20    62    60    1
    21    28    25    1
    22    28    29    1
    23    25    24    1
    24    69    68   ar
    25    70    68   ar
    26    51    50    2
    27    30    29    1
    28    68    67    1
    29    24    18   am
    30    50    49    1
    31    29    31    1
    32    63    64    1
    33    65    66    2
    34    65    64    1
    35    52    49    1
    36    52    53    1
    37    18    19    2
    38    18    17    1
    39    64    67    1
    40    49    48    1
    41    55    53   am
    42    16    17    1
    43    53    54    2
    44    17    20    1
    45   102   100    1
    46   103   104    1
    47   103    98   am
    48   100   101    1
    49   100    97    1
    50   104   105    1
    51    20    21    1
    52   105   106    2
    53    97    98    1
    54    97    96    1
    55    21    22    1
    56    21    23    1
    57    98    99    2
    58    14    15    1
    59    14    13    1
    60    94    93    2
    61    12    13    1
    62    12    11    1
    63    96    93   am
    64     7     8    1
    65     8    11    1
    66     8     9    1
    67     6     5    1
    68    93    92    1
    69     1     2    1
    70    10     9    2
    71     2     5    1
    72     2     3    1
    73    42    41    2
    74    41    40    1
    75     3     4    2
    76    92    91    1
    77    92    95    1
    78    78    77    2
    79    91    89   am
    80    40    39    1
    81    40    43    1
    82   114   112   am
    83    79    76    1
    84   111   112    1
    85   111   108    1
    86    44    43    1
    87    44    45    1
    88    77    76    1
    89    89    88    1
    90    89    90    2
    91   112   113    2
    92    76    75    1
    93   107   108    1
    94    88    87    1
    95    47    45   ar
    96   108   109    1
    97    45    46   ar
    98    83    82    2
    99   110   109    2
   100    87    82   am
   101    82    81    1
   102   133   131    1
   103   132   131    1
   104    86    84    1
   105    81    80    1
   106    81    84    1
   107   131   130    2
   108   122   120   am
   109    84    85    1
   110   121   120    2
   111   130   129    1
   112   120   119    1
   113   129   128    1
   114   115   116    1
   115   119   116    1
   116   116   117    1
   117   128   127    1
   118   127   124    1
   119   117   118    2
   120   124   123    1
   121   124   125    1
   122   125   126    2
