@<TRIPOS>MOLECULE
tmp/1fcvA00.pdb
 210 205 0 0 0
SMALL
GASTEIGER

@<TRIPOS>ATOM
      1  N         -0.2030   35.5250  -14.1830 N.3     9  PRO9       -0.2116
      2  CA         1.1090   35.7210  -14.7930 C.3     9  PRO9        0.1372
      3  C          1.1510   35.6010  -16.2960 C.2     9  PRO9        0.2244
      4  O          1.9530   34.8250  -16.8180 O.2     9  PRO9       -0.2868
      5  CB         1.9510   34.6600  -14.0820 C.3     9  PRO9        0.0268
      6  CG         0.9900   33.5320  -13.9550 C.3     9  PRO9        0.0207
      7  CD        -0.2770   34.2240  -13.4930 C.3     9  PRO9        0.0892
      8  N          2.5610   37.4620  -18.4450 N.3    11  PHE11      -0.1227
      9  CA         3.8450   37.8800  -18.9750 C.3    11  PHE11       0.1736
     10  C          4.4990   36.6920  -19.6720 C.2    11  PHE11       0.2595
     11  O          5.2530   36.8180  -20.6350 O.2    11  PHE11      -0.2718
     12  CB         4.7640   38.4460  -17.8830 C.3    11  PHE11       0.0547
     13  CG         5.3080   37.4110  -16.9390 C.ar   11  PHE11      -0.0202
     14  CD1        6.4440   36.6860  -17.2560 C.ar   11  PHE11      -0.0042
     15  CD2        4.6740   37.1720  -15.7200 C.ar   11  PHE11      -0.0042
     16  CE1        6.9320   35.7250  -16.3960 C.ar   11  PHE11      -0.0003
     17  CE2        5.1730   36.2150  -14.8510 C.ar   11  PHE11      -0.0003
     18  CZ         6.2940   35.4850  -15.1930 C.ar   11  PHE11      -0.0000
     19  N          4.2160   35.4730  -19.2080 N.am   12  MET12      -0.1979
     20  CA         4.5680   34.2120  -19.8020 C.3    12  MET12       0.1605
     21  C          4.0970   34.0270  -21.2530 C.2    12  MET12       0.2287
     22  O          4.6380   33.1450  -21.9180 O.2    12  MET12      -0.2864
     23  CB         3.8750   33.0400  -19.0740 C.3    12  MET12       0.0413
     24  CG         4.1550   32.8610  -17.6050 C.3    12  MET12       0.0598
     25  SD         5.7460   32.1560  -17.1850 S.3    12  MET12      -0.1393
     26  CE         5.7200   30.5310  -17.8800 C.3    12  MET12       0.0692
     27  N          5.9790   36.3840  -25.1450 N.3    15  LYS15      -0.1245
     28  CA         6.8330   35.8220  -26.1730 C.3    15  LYS15       0.1561
     29  C          6.0700   35.3410  -27.4110 C.2    15  LYS15       0.2260
     30  O          6.6830   35.0840  -28.4630 O.2    15  LYS15      -0.2867
     31  CB         7.6230   34.6610  -25.5580 C.3    15  LYS15       0.0271
     32  CG         6.6770   33.4950  -25.2640 C.3    15  LYS15       0.0035
     33  CD         7.4680   32.2780  -24.8120 C.3    15  LYS15       0.0206
     34  CE         8.2970   32.5520  -23.5720 C.3    15  LYS15       0.1093
     35  NZ         7.4170   32.9260  -22.4060 N.3    15  LYS15      -0.1314
     36  N          4.2590   41.4630  -14.6160 N.3    37  PHE37      -0.1227
     37  CA         3.8290   40.7490  -13.4260 C.3    37  PHE37       0.1736
     38  C          3.7350   41.6730  -12.2160 C.2    37  PHE37       0.2595
     39  O          2.6940   41.7210  -11.5710 O.2    37  PHE37      -0.2718
     40  CB         4.7330   39.5700  -13.0720 C.3    37  PHE37       0.0547
     41  CG         4.0720   38.5950  -12.1440 C.ar   37  PHE37      -0.0202
     42  CD1        2.7220   38.2800  -12.2540 C.ar   37  PHE37      -0.0042
     43  CD2        4.8070   37.9710  -11.1550 C.ar   37  PHE37      -0.0042
     44  CE1        2.1490   37.3530  -11.4130 C.ar   37  PHE37      -0.0003
     45  CE2        4.2190   37.0500  -10.2950 C.ar   37  PHE37      -0.0003
     46  CZ         2.8990   36.7310  -10.4350 C.ar   37  PHE37      -0.0000
     47  N          4.8540   42.3340  -11.9030 N.am   38  ARG38      -0.1980
     48  CA         4.8500   43.2780  -10.7880 C.3    38  ARG38       0.1597
     49  C          4.8200   44.6900  -11.3650 C.2    38  ARG38       0.2287
     50  O          5.5230   44.9700  -12.3300 O.2    38  ARG38      -0.2864
     51  CB         6.0930   43.1140   -9.9190 C.3    38  ARG38       0.0334
     52  CG         6.1770   41.7690   -9.2820 C.3    38  ARG38       0.0492
     53  CD         7.3050   41.5780   -8.2650 C.3    38  ARG38       0.2205
     54  NE         6.9980   40.2390   -7.7270 N.pl3  38  ARG38      -0.0865
     55  CZ         7.4340   39.1160   -8.3060 C.cat  38  ARG38       0.5346
     56  NH1        7.0330   37.9540   -7.8090 N.pl3  38  ARG38       0.1354
     57  NH2        8.2970   39.2670   -9.3070 N.pl3  38  ARG38       0.1354
     58  N          3.0710   40.6040   -6.0750 N.3    44  ILE44      -0.1245
     59  CA         3.0090   39.5410   -5.0710 C.3    44  ILE44       0.1561
     60  C          4.4290   39.0790   -4.8270 C.2    44  ILE44       0.2260
     61  O          5.2200   38.9990   -5.7590 O.2    44  ILE44      -0.2867
     62  CB         2.0440   38.4320   -5.5120 C.3    44  ILE44       0.0252
     63  CG1        1.9130   37.3550   -4.4240 C.3    44  ILE44       0.0019
     64  CG2        2.4430   37.8860   -6.8720 C.3    44  ILE44       0.0019
     65  CD1        0.7730   36.3610   -4.5940 C.3    44  ILE44       0.0001
     66  N          6.4210   35.8910   -3.4980 N.3    46  TYR46      -0.1241
     67  CA         6.3630   34.4870   -3.1270 C.3    46  TYR46       0.1605
     68  C          7.4960   34.1040   -2.1950 C.2    46  TYR46       0.2264
     69  O          8.6600   34.2830   -2.5340 O.2    46  TYR46      -0.2867
     70  CB         6.4960   33.6730   -4.4200 C.3    46  TYR46       0.0534
     71  CG         5.2890   33.7790   -5.3370 C.ar   46  TYR46      -0.0201
     72  CD1        5.4530   34.0460   -6.6890 C.ar   46  TYR46      -0.0009
     73  CD2        3.9850   33.6300   -4.8510 C.ar   46  TYR46      -0.0009
     74  CE1        4.3540   34.1100   -7.5300 C.ar   46  TYR46       0.0417
     75  CE2        2.8920   33.7070   -5.6650 C.ar   46  TYR46       0.0417
     76  CZ         3.0930   33.9470   -7.0080 C.ar   46  TYR46       0.1957
     77  OH         2.0160   34.0080   -7.8470 O.3    46  TYR46      -0.2866
     78  N          3.3320   36.3710    0.0240 N.3   102  ASP102     -0.1239
     79  CA         2.7860   35.0050    0.0280 C.3   102  ASP102      0.1674
     80  C          3.7420   34.1850    0.8940 C.2   102  ASP102      0.2266
     81  O          4.8200   33.8500    0.4000 O.2   102  ASP102     -0.2867
     82  CB         2.6070   34.4240   -1.3730 C.3   102  ASP102      0.1410
     83  CG         1.8990   33.0890   -1.3650 C.2   102  ASP102      0.3668
     84  OD1        1.7280   32.5130   -0.2540 O.co2 102  ASP102     -0.2456
     85  OD2        1.4860   32.5990   -2.4430 O.co2 102  ASP102     -0.2456
     86  N          3.5590   30.9030    3.2320 N.3   104  GLU104     -0.1245
     87  CA         2.7200   29.7790    3.5960 C.3   104  GLU104      0.1567
     88  C          3.4310   28.6840    4.3670 C.2   104  GLU104      0.2260
     89  O          2.7660   27.6750    4.6360 O.2   104  GLU104     -0.2867
     90  CB         2.0890   29.1740    2.3240 C.3   104  GLU104      0.0388
     91  CG         1.1120   30.1550    1.6840 C.3   104  GLU104      0.1160
     92  CD         0.5080   29.6730    0.3740 C.2   104  GLU104      0.3649
     93  OE1       -0.3530   28.7530    0.3910 O.co2 104  GLU104     -0.2457
     94  OE2        0.9240   30.1840   -0.6900 O.co2 104  GLU104     -0.2457
     95  N         -0.9380   37.0670    1.9990 N.3   175  TYR175     -0.1241
     96  CA        -1.8630   36.2060    1.2330 C.3   175  TYR175      0.1605
     97  C         -2.5780   35.2460    2.1780 C.2   175  TYR175      0.2264
     98  O         -1.9190   34.7160    3.0630 O.2   175  TYR175     -0.2867
     99  CB        -1.0760   35.4090    0.1790 C.3   175  TYR175      0.0534
    100  CG        -1.8550   34.2420   -0.3980 C.ar  175  TYR175     -0.0201
    101  CD1       -3.0030   34.4650   -1.1560 C.ar  175  TYR175     -0.0009
    102  CD2       -1.4900   32.9220   -0.1330 C.ar  175  TYR175     -0.0009
    103  CE1       -3.7570   33.4260   -1.6790 C.ar  175  TYR175      0.0417
    104  CE2       -2.2150   31.8760   -0.6450 C.ar  175  TYR175      0.0417
    105  CZ        -3.3230   32.1370   -1.4330 C.ar  175  TYR175      0.1957
    106  OH        -4.0600   31.0800   -1.9250 O.3   175  TYR175     -0.2866
    107  N        -10.4680   30.0480   -3.3520 N.3   218  TYR218     -0.1298
    108  CA       -10.3750   29.1030   -4.4660 C.3   218  TYR218      0.1290
    109  C        -11.5100   28.1100   -4.4150 C.3   218  TYR218      0.2013
    110  O        -11.7260   27.6860   -3.2720 O.3   218  TYR218     -0.2188
    111  CB        -8.9720   28.4320   -4.4400 C.3   218  TYR218      0.0480
    112  CG        -7.8260   29.4330   -4.6120 C.ar  218  TYR218     -0.0204
    113  CD1       -8.0940   30.7660   -4.9350 C.ar  218  TYR218     -0.0009
    114  CD2       -6.4960   29.0700   -4.4600 C.ar  218  TYR218     -0.0009
    115  CE1       -7.1150   31.7050   -5.1030 C.ar  218  TYR218      0.0417
    116  CE2       -5.4750   30.0040   -4.6270 C.ar  218  TYR218      0.0417
    117  CZ        -5.7890   31.3070   -4.9520 C.ar  218  TYR218      0.1957
    118  OH        -4.8380   32.2710   -5.1440 O.3   218  TYR218     -0.2866
    119  N         -8.6980   36.6550   -2.7540 N.3   256  TYR256     -0.1241
    120  CA        -7.9070   36.0610   -3.8110 C.3   256  TYR256      0.1605
    121  C         -8.7500   35.0100   -4.5200 C.2   256  TYR256      0.2264
    122  O         -9.3070   34.0910   -3.9310 O.2   256  TYR256     -0.2867
    123  CB        -6.5870   35.4880   -3.2980 C.3   256  TYR256      0.0534
    124  CG        -5.3540   36.2560   -3.7160 C.ar  256  TYR256     -0.0201
    125  CD1       -4.9860   37.4410   -3.0820 C.ar  256  TYR256     -0.0009
    126  CD2       -4.5460   35.7950   -4.7470 C.ar  256  TYR256     -0.0009
    127  CE1       -3.8590   38.1460   -3.4760 C.ar  256  TYR256      0.0417
    128  CE2       -3.4510   36.5090   -5.1960 C.ar  256  TYR256      0.0417
    129  CZ        -3.1200   37.6960   -4.5520 C.ar  256  TYR256      0.1957
    130  OH        -2.0580   38.4390   -5.0100 O.3   256  TYR256     -0.2866
    131  N         -9.2820   32.4670   -7.9670 N.3   258  TRP258     -0.1241
    132  CA        -8.6650   31.6550   -8.9730 C.3   258  TRP258      0.1605
    133  C         -9.7550   31.1750   -9.9550 C.2   258  TRP258      0.2264
    134  O        -10.8610   30.7880   -9.5600 O.2   258  TRP258     -0.2867
    135  CB        -7.9510   30.4290   -8.3900 C.3   258  TRP258      0.0550
    136  CG        -6.9980   29.7100   -9.3120 C.ar  258  TRP258      0.0003
    137  CD1       -6.5180   30.1720  -10.5220 C.ar  258  TRP258      0.0946
    138  CD2       -6.3510   28.4560   -9.0830 C.ar  258  TRP258      0.0152
    139  NE1       -5.6380   29.2720  -11.0490 N.ar  258  TRP258     -0.2442
    140  CE2       -5.5000   28.2120  -10.1920 C.ar  258  TRP258      0.0810
    141  CE3       -6.3970   27.5080   -8.0570 C.ar  258  TRP258      0.0012
    142  CZ2       -4.7200   27.0610  -10.3160 C.ar  258  TRP258      0.0191
    143  CZ3       -5.6290   26.3560   -8.1610 C.ar  258  TRP258      0.0001
    144  CH2       -4.7960   26.1390   -9.3010 C.ar  258  TRP258      0.0015
    145  N         -9.6130   24.0120   -7.7800 N.3   262  GLN262     -0.1245
    146  CA        -8.4120   23.5400   -7.1020 C.3   262  GLN262      0.1566
    147  C         -8.1490   22.0600   -7.1350 C.2   262  GLN262      0.2260
    148  O         -6.9990   21.6180   -7.2460 O.2   262  GLN262     -0.2867
    149  CB        -8.5630   24.0990   -5.6950 C.3   262  GLN262      0.0367
    150  CG        -7.4200   23.7410   -4.7790 C.3   262  GLN262      0.0905
    151  CD        -7.5810   24.5970   -3.5320 C.2   262  GLN262      0.2608
    152  OE1       -6.5900   25.2400   -3.1950 O.2   262  GLN262     -0.2717
    153  NE2       -8.7860   24.5710   -2.9860 N.am  262  GLN262     -0.0878
    154  N         -7.7520   21.1180  -11.7710 N.3   265  ARG265     -0.1245
    155  CA        -7.1030   22.1520  -12.5510 C.3   265  ARG265      0.1563
    156  C         -7.2970   22.1730  -14.0490 C.2   265  ARG265      0.2260
    157  O         -7.1840   23.2520  -14.6360 O.2   265  ARG265     -0.2867
    158  CB        -5.5870   22.0920  -12.2720 C.3   265  ARG265      0.0307
    159  CG        -5.3500   22.3230  -10.7790 C.3   265  ARG265      0.0489
    160  CD        -3.8730   22.5870  -10.5940 C.3   265  ARG265      0.2205
    161  NE        -3.3810   23.7630  -11.3380 N.pl3 265  ARG265     -0.0865
    162  CZ        -2.2190   24.2970  -10.9480 C.cat 265  ARG265      0.5346
    163  NH1       -1.7380   25.3590  -11.5720 N.pl3 265  ARG265      0.1354
    164  NH2       -1.5720   23.7470   -9.9280 N.pl3 265  ARG265      0.1354
    165  N         -5.9740   35.5500   -9.5650 N.3   292  TRP292     -0.1227
    166  CA        -4.6640   34.9400   -9.5840 C.3   292  TRP292      0.1737
    167  C         -4.5970   33.7500  -10.5490 C.2   292  TRP292      0.2596
    168  O         -5.6280   33.1330  -10.8050 O.2   292  TRP292     -0.2718
    169  CB        -4.4130   34.3580   -8.1720 C.3   292  TRP292      0.0564
    170  CG        -3.0560   33.7210   -8.0700 C.ar  292  TRP292      0.0003
    171  CD1       -1.8800   34.3970   -7.9620 C.ar  292  TRP292      0.0946
    172  CD2       -2.7170   32.3340   -8.1470 C.ar  292  TRP292      0.0152
    173  NE1       -0.8530   33.5140   -7.9060 N.ar  292  TRP292     -0.2442
    174  CE2       -1.3230   32.2330   -8.0270 C.ar  292  TRP292      0.0810
    175  CE3       -3.4550   31.1600   -8.3250 C.ar  292  TRP292      0.0012
    176  CZ2       -0.6230   31.0220   -8.0680 C.ar  292  TRP292      0.0191
    177  CZ3       -2.7690   29.9500   -8.3290 C.ar  292  TRP292      0.0001
    178  CH2       -1.3710   29.8880   -8.2030 C.ar  292  TRP292      0.0015
    179  N         -3.3830   33.3410  -10.9340 N.am  293  GLY293     -0.1942
    180  CA        -3.2090   32.1470  -11.6940 C.3   293  GLY293      0.2014
    181  C         -1.8110   31.5840  -11.5900 C.2   293  GLY293      0.2640
    182  O         -0.8650   32.2950  -11.2380 O.2   293  GLY293     -0.2714
    183  N         -1.6520   30.3000  -11.8800 N.am  294  SER294     -0.1935
    184  CA        -0.3200   29.7120  -11.8400 C.3   294  SER294      0.2055
    185  C          0.3720   29.8500  -13.1940 C.2   294  SER294      0.2644
    186  O         -0.2590   29.5490  -14.2230 O.2   294  SER294     -0.2714
    187  CB        -0.4560   28.2250  -11.4700 C.3   294  SER294      0.2130
    188  OG         0.8170   27.6310  -11.6850 O.3   294  SER294     -0.2179
    189  N          1.6810   30.0480  -13.2390 N.am  295  SER295     -0.1935
    190  CA         2.4200   30.0490  -14.4940 C.3   295  SER295      0.2055
    191  C          2.4720   28.6800  -15.1740 C.2   295  SER295      0.2643
    192  O          2.6370   28.6020  -16.3880 O.2   295  SER295     -0.2714
    193  CB         3.8280   30.6230  -14.2880 C.3   295  SER295      0.2130
    194  OG         4.4740   29.9620  -13.2140 O.3   295  SER295     -0.2179
    195  N          2.0890   27.5840  -14.5400 N.am  296  ASP296     -0.1971
    196  CA         1.9990   26.2660  -15.1050 C.3   296  ASP296      0.1709
    197  C          0.6990   26.0930  -15.8900 C.2   296  ASP296      0.2293
    198  O          0.5370   25.0560  -16.5550 O.2   296  ASP296     -0.2864
    199  CB         1.9650   25.2140  -14.0090 C.3   296  ASP296      0.1436
    200  CG         3.1450   25.0820  -13.1030 C.2   296  ASP296      0.3671
    201  OD1        4.3080   25.3570  -13.4470 O.co2 296  ASP296     -0.2456
    202  OD2        2.9040   24.6450  -11.9520 O.co2 296  ASP296     -0.2456
    203  N          1.8980   27.9390  -19.6190 N.3   299  ASN299     -0.1240
    204  CA         3.3280   27.8810  -19.9010 C.3   299  ASN299      0.1653
    205  C          3.6620   27.3030  -21.2690 C.2   299  ASN299      0.2266
    206  O          4.7290   26.6930  -21.4570 O.2   299  ASN299     -0.2867
    207  CB         4.1100   27.1390  -18.8190 C.3   299  ASN299      0.1155
    208  CG         3.7620   25.6760  -18.6700 C.2   299  ASN299      0.2627
    209  OD1        3.0860   25.0550  -19.4790 O.2   299  ASN299     -0.2716
    210  ND2        4.2360   25.0010  -17.6200 N.am  299  ASN299     -0.0877
@<TRIPOS>BOND
     1    30    29    2
     2    29    28    1
     3    28    31    1
     4    28    27    1
     5    31    32    1
     6    32    33    1
     7    33    34    1
     8    34    35    1
     9    22    21    2
    10   206   205    2
    11   205   204    1
    12    21    20    1
    13    11    10    2
    14   204   203    1
    15   204   207    1
    16    20    19    1
    17    20    23    1
    18    10    19   am
    19    10     9    1
    20   209   208    2
    21    23    24    1
    22     9     8    1
    23     9    12    1
    24   207   208    1
    25   208   210   am
    26    12    13    1
    27    26    25    1
    28    24    25    1
    29    14    13   ar
    30    14    16   ar
    31    13    15   ar
    32     4     3    2
    33   198   197    2
    34    16    18   ar
    35   192   191    2
    36     3     2    1
    37   197   196    1
    38    15    17   ar
    39    18    17   ar
    40   191   195   am
    41   191   190    1
    42   196   195    1
    43   196   199    1
    44     2     1    1
    45     2     5    1
    46   157   156    2
    47    36    37    1
    48   190   193    1
    49   190   189    1
    50   193   194    1
    51   186   185    2
    52     1     7    1
    53     5     6    1
    54   156   155    1
    55   199   200    1
    56     6     7    1
    57   201   200   ar
    58    37    40    1
    59    37    38    1
    60   189   185   am
    61   185   184    1
    62   200   202   ar
    63    40    41    1
    64   155   158    1
    65   155   154    1
    66    50    49    2
    67   158   159    1
    68    42    41   ar
    69    42    44   ar
    70    38    47   am
    71    38    39    2
    72    41    43   ar
    73    47    48    1
    74   183   184    1
    75   183   181   am
    76   184   187    1
    77   180   181    1
    78   180   179    1
    79   188   187    1
    80   181   182    2
    81   163   162    1
    82    44    46   ar
    83    49    48    1
    84   161   162    2
    85   161   160    1
    86    43    45   ar
    87   139   137   ar
    88   139   140   ar
    89   162   164    1
    90   179   167   am
    91   168   167    2
    92    48    51    1
    93   159   160    1
    94   167   166    1
    95   137   136   ar
    96    46    45   ar
    97   142   140   ar
    98   142   144   ar
    99   140   138   ar
   100   133   134    2
   101   133   132    1
   102    51    52    1
   103   166   165    1
   104   166   169    1
   105   136   138   ar
   106   136   135    1
   107    57    55    1
   108   144   143   ar
   109    52    53    1
   110   138   141   ar
   111   132   135    1
   112   132   131    1
   113   177   175   ar
   114   177   178   ar
   115   175   172   ar
   116    55    56    1
   117    55    54    2
   118    53    54    1
   119   178   176   ar
   120   169   170    1
   121   143   141   ar
   122   172   170   ar
   123   172   174   ar
   124   170   171   ar
   125   176   174   ar
   126   174   173   ar
   127   171   173   ar
   128    77    76    1
   129   145   146    1
   130    74    76   ar
   131    74    72   ar
   132   148   147    2
   133   147   146    1
   134   146   149    1
   135    76    75   ar
   136    64    62    1
   137    72    71   ar
   138    58    59    1
   139    61    60    2
   140   149   150    1
   141    75    73   ar
   142    62    59    1
   143    62    63    1
   144    71    73   ar
   145    71    70    1
   146   128   126   ar
   147   128   129   ar
   148   118   117    1
   149   115   117   ar
   150   115   113   ar
   151    59    60    1
   152   130   129    1
   153   117   116   ar
   154   113   112   ar
   155   150   151    1
   156   126   124   ar
   157   116   114   ar
   158   112   114   ar
   159   112   111    1
   160    65    63    1
   161   129   127   ar
   162   121   122    2
   163   121   120    1
   164   108   111    1
   165   108   109    1
   166   108   107    1
   167    70    67    1
   168   109   110    1
   169   120   123    1
   170   120   119    1
   171   124   123    1
   172   124   125   ar
   173   151   152    2
   174   151   153   am
   175    66    67    1
   176   127   125   ar
   177    67    68    1
   178    69    68    2
   179    85    83   ar
   180   106   105    1
   181   103   105   ar
   182   103   101   ar
   183   105   104   ar
   184    82    83    1
   185    82    79    1
   186    83    84   ar
   187   101   100   ar
   188    94    92   ar
   189   104   102   ar
   190   100   102   ar
   191   100    99    1
   192    78    79    1
   193    79    80    1
   194    99    96    1
   195    92    93   ar
   196    92    91    1
   197    81    80    2
   198    96    95    1
   199    96    97    1
   200    91    90    1
   201    97    98    2
   202    90    87    1
   203    86    87    1
   204    87    88    1
   205    88    89    2
