@<TRIPOS>MOLECULE
tmp/1fcyA00.pdb
 209 197 0 0 0
SMALL
GASTEIGER

@<TRIPOS>ATOM
      1  N         32.7550   18.2520   96.5630 N.3    20  PHE20      -0.1241
      2  CA        32.3030   17.4800   95.4230 C.3    20  PHE20       0.1605
      3  C         30.8000   17.3200   95.4180 C.2    20  PHE20       0.2264
      4  O         30.2470   16.4120   95.9680 O.2    20  PHE20      -0.2867
      5  CB        33.0220   16.1290   95.3610 C.3    20  PHE20       0.0534
      6  CG        32.8690   15.5090   93.9500 C.ar   20  PHE20      -0.0203
      7  CD1       32.1740   14.3500   93.7410 C.ar   20  PHE20      -0.0042
      8  CD2       33.4320   16.1470   92.8710 C.ar   20  PHE20      -0.0042
      9  CE1       32.0230   13.8050   92.4910 C.ar   20  PHE20      -0.0003
     10  CE2       33.3180   15.6400   91.6050 C.ar   20  PHE20      -0.0003
     11  CZ        32.5960   14.4690   91.4120 C.ar   20  PHE20      -0.0000
     12  N         38.5200   21.3870   75.1470 N.3    46  TRP46      -0.1241
     13  CA        39.7410   21.2340   75.9500 C.3    46  TRP46       0.1605
     14  C         39.9040   22.3940   76.9130 C.2    46  TRP46       0.2264
     15  O         40.2220   22.2020   78.0630 O.2    46  TRP46      -0.2867
     16  CB        40.9830   21.0570   75.0280 C.3    46  TRP46       0.0550
     17  CG        42.2520   21.3880   75.7680 C.ar   46  TRP46       0.0003
     18  CD1       43.0600   22.4640   75.6060 C.ar   46  TRP46       0.0946
     19  CD2       42.8410   20.6110   76.8260 C.ar   46  TRP46       0.0152
     20  NE1       44.1020   22.3910   76.4820 N.ar   46  TRP46      -0.2442
     21  CE2       44.0040   21.2750   77.2590 C.ar   46  TRP46       0.0810
     22  CE3       42.5240   19.4170   77.4850 C.ar   46  TRP46       0.0012
     23  CZ2       44.8280   20.8010   78.2870 C.ar   46  TRP46       0.0191
     24  CZ3       43.3320   18.9400   78.4990 C.ar   46  TRP46       0.0001
     25  CH2       44.4900   19.6360   78.8950 C.ar   46  TRP46       0.0015
     26  N         37.4140   21.8840   79.7230 N.3    49  PHE49      -0.1241
     27  CA        37.7460   20.6490   80.4750 C.3    49  PHE49       0.1605
     28  C         38.9200   20.8870   81.3980 C.2    49  PHE49       0.2264
     29  O         38.9580   20.5250   82.5620 O.2    49  PHE49      -0.2867
     30  CB        38.0270   19.5840   79.4240 C.3    49  PHE49       0.0534
     31  CG        38.4390   18.2470   79.9950 C.ar   49  PHE49      -0.0203
     32  CD1       37.4920   17.3350   80.4360 C.ar   49  PHE49      -0.0042
     33  CD2       39.7630   17.8960   80.0280 C.ar   49  PHE49      -0.0042
     34  CE1       37.9110   16.0880   80.8840 C.ar   49  PHE49      -0.0003
     35  CE2       40.1770   16.6500   80.4690 C.ar   49  PHE49      -0.0003
     36  CZ        39.2110   15.7370   80.8740 C.ar   49  PHE49      -0.0000
     37  N         38.1200   23.1620   84.2990 N.3    52  LEU52      -0.1231
     38  CA        37.3830   22.4050   85.3040 C.3    52  LEU52       0.1693
     39  C         38.3030   21.4360   86.0410 C.2    52  LEU52       0.2591
     40  O         38.1670   21.2510   87.2680 O.2    52  LEU52      -0.2718
     41  CB        36.2340   21.6580   84.6840 C.3    52  LEU52       0.0284
     42  CG        35.1050   22.5750   84.2000 C.3    52  LEU52       0.0019
     43  CD1       34.1920   21.8400   83.2220 C.3    52  LEU52       0.0001
     44  CD2       34.3690   23.0910   85.4120 C.3    52  LEU52       0.0001
     45  N         39.2550   20.8080   85.3590 N.am   53  ALA53      -0.1980
     46  CA        40.2310   19.9420   86.0330 C.3    53  ALA53       0.1597
     47  C         41.0470   20.7300   87.0490 C.2    53  ALA53       0.2287
     48  O         41.2380   20.2520   88.1670 O.2    53  ALA53      -0.2864
     49  CB        41.1210   19.3250   85.0040 C.3    53  ALA53       0.0319
     50  N         38.9830   21.3060   90.0700 N.3    56  CYS56      -0.1235
     51  CA        38.8370   20.0650   90.8890 C.3    56  CYS56       0.1677
     52  C         40.0930   19.6330   91.6040 C.2    56  CYS56       0.2270
     53  O         40.0370   19.1410   92.6990 O.2    56  CYS56      -0.2867
     54  CB        38.2390   18.9650   90.0160 C.3    56  CYS56       0.0956
     55  SG        37.6170   17.5450   90.9720 S.3    56  CYS56      -0.0801
     56  N         45.2870   12.2850   89.8830 N.3    87  LEU87      -0.1245
     57  CA        44.6080   11.8530   88.6490 C.3    87  LEU87       0.1561
     58  C         43.6410   10.6980   88.9190 C.2    87  LEU87       0.2260
     59  O         42.5490   10.6410   88.3510 O.2    87  LEU87      -0.2867
     60  CB        45.5790   11.4970   87.5440 C.3    87  LEU87       0.0270
     61  CG        44.9980   11.2530   86.1570 C.3    87  LEU87       0.0019
     62  CD1       44.0740   12.3550   85.6820 C.3    87  LEU87       0.0001
     63  CD2       46.1500   11.0310   85.1840 C.3    87  LEU87       0.0001
     64  N         40.5650   12.3900   90.4180 N.3    90  LEU90      -0.1231
     65  CA        39.8440   13.0760   89.3280 C.3    90  LEU90       0.1693
     66  C         38.9900   12.0620   88.5330 C.2    90  LEU90       0.2591
     67  O         37.8170   12.2460   88.2530 O.2    90  LEU90      -0.2718
     68  CB        40.8030   13.7800   88.3740 C.3    90  LEU90       0.0284
     69  CG        41.3640   15.1180   88.8460 C.3    90  LEU90       0.0019
     70  CD1       42.5760   15.5260   88.0100 C.3    90  LEU90       0.0001
     71  CD2       40.3240   16.2130   88.8510 C.3    90  LEU90       0.0001
     72  N         39.6530   10.9640   88.1020 N.am   91  MET91      -0.1979
     73  CA        38.9700   10.0150   87.2730 C.3    91  MET91       0.1605
     74  C         37.8460    9.3510   88.0390 C.2    91  MET91       0.2287
     75  O         36.7670    9.1200   87.4950 O.2    91  MET91      -0.2864
     76  CB        39.9590    8.9970   86.6430 C.3    91  MET91       0.0413
     77  CG        40.8890    9.7060   85.6500 C.3    91  MET91       0.0598
     78  SD        42.0060    8.5590   84.8660 S.3    91  MET91      -0.1393
     79  CE        42.5060    9.3590   83.4130 C.3    91  MET91       0.0692
     80  N         36.1060   10.6710   90.4360 N.3    93  ARG93      -0.1231
     81  CA        35.0930   11.7090   90.5760 C.3    93  ARG93       0.1694
     82  C         34.2600   11.8220   89.3010 C.2    93  ARG93       0.2591
     83  O         33.0340   11.8230   89.3870 O.2    93  ARG93      -0.2718
     84  CB        35.7240   13.0320   90.9750 C.3    93  ARG93       0.0321
     85  CG        36.0500   13.1640   92.4490 C.3    93  ARG93       0.0489
     86  CD        36.7330   14.4640   92.8380 C.3    93  ARG93       0.2205
     87  NE        36.7410   14.5990   94.2860 N.pl3  93  ARG93      -0.0865
     88  CZ        36.6320   15.7340   94.9620 C.cat  93  ARG93       0.5346
     89  NH1       36.5690   16.9130   94.3810 N.pl3  93  ARG93       0.1354
     90  NH2       36.6020   15.7170   96.2930 N.pl3  93  ARG93       0.1354
     91  N         34.9010   11.9410   88.1370 N.am   94  ILE94      -0.1980
     92  CA        34.0900   12.1530   86.9390 C.3    94  ILE94       0.1595
     93  C         33.2240   10.9450   86.6300 C.2    94  ILE94       0.2287
     94  O         32.0850   11.0150   86.1750 O.2    94  ILE94      -0.2864
     95  CB        34.9480   12.6680   85.7320 C.3    94  ILE94       0.0276
     96  CG1       34.0860   13.3520   84.6690 C.3    94  ILE94       0.0022
     97  CG2       35.8250   11.5950   85.1570 C.3    94  ILE94       0.0022
     98  CD1       33.2240   14.4830   85.1150 C.3    94  ILE94       0.0001
     99  N         29.9620   10.6980   88.2240 N.3    97  ARG97      -0.1245
    100  CA        29.0280   11.6520   87.6290 C.3    97  ARG97       0.1563
    101  C         28.5330   11.1650   86.2710 C.2    97  ARG97       0.2260
    102  O         28.0340   11.9400   85.4630 O.2    97  ARG97      -0.2867
    103  CB        29.7090   13.0290   87.5030 C.3    97  ARG97       0.0307
    104  CG        30.1020   13.7230   88.7750 C.3    97  ARG97       0.0489
    105  CD        29.0230   14.6890   89.2070 C.3    97  ARG97       0.2205
    106  NE        29.4050   15.5430   90.3180 N.pl3  97  ARG97      -0.0865
    107  CZ        30.2570   16.5360   90.2750 C.cat  97  ARG97       0.5346
    108  NH1       30.8330   16.8140   89.1230 N.pl3  97  ARG97       0.1354
    109  NH2       30.5420   17.2630   91.3330 N.pl3  97  ARG97       0.1354
    110  N         30.2890   17.6910   85.1530 N.3   107  PHE107     -0.1227
    111  CA        31.2930   18.4150   85.9090 C.3   107  PHE107      0.1736
    112  C         30.6800   19.2780   86.9990 C.2   107  PHE107      0.2596
    113  O         29.4600   19.4170   87.0730 O.2   107  PHE107     -0.2718
    114  CB        32.1210   19.2760   84.9520 C.3   107  PHE107      0.0547
    115  CG        32.8210   18.4560   83.9280 C.ar  107  PHE107     -0.0202
    116  CD1       32.2110   18.0210   82.7470 C.ar  107  PHE107     -0.0042
    117  CD2       34.1190   18.0560   84.1460 C.ar  107  PHE107     -0.0042
    118  CE1       32.8640   17.2130   81.8350 C.ar  107  PHE107     -0.0003
    119  CE2       34.7780   17.2580   83.2350 C.ar  107  PHE107     -0.0003
    120  CZ        34.1650   16.8090   82.0660 C.ar  107  PHE107     -0.0000
    121  N         31.4880   19.8750   87.8390 N.am  108  SER108     -0.1952
    122  CA        30.9540   20.4970   89.0500 C.3   108  SER108      0.1924
    123  C         30.2660   21.8360   88.8540 C.2   108  SER108      0.2314
    124  O         29.6170   22.3250   89.7690 O.2   108  SER108     -0.2863
    125  CB        32.0770   20.6250   90.0820 C.3   108  SER108      0.2116
    126  OG        32.4390   19.3550   90.6300 O.3   108  SER108     -0.2180
    127  N         39.5440   15.7810   75.3510 N.3   122  GLY122     -0.1210
    128  CA        40.8930   15.3460   75.6030 C.3   122  GLY122      0.1956
    129  C         41.0320   13.8720   75.9200 C.2   122  GLY122      0.2611
    130  O         42.1540   13.3870   75.8630 O.2   122  GLY122     -0.2717
    131  N         39.9690   13.1340   76.2480 N.am  123  PHE123     -0.1976
    132  CA        40.1720   11.7210   76.5400 C.3   123  PHE123      0.1639
    133  C         40.6720   10.9270   75.3290 C.2   123  PHE123      0.2290
    134  O         41.4370    9.9900   75.4970 O.2   123  PHE123     -0.2864
    135  CB        38.9010   11.0780   77.0750 C.3   123  PHE123      0.0560
    136  CG        38.7540   11.2510   78.5900 C.ar  123  PHE123     -0.0200
    137  CD1       38.0800   12.2950   79.1290 C.ar  123  PHE123     -0.0042
    138  CD2       39.3410   10.3310   79.4490 C.ar  123  PHE123     -0.0042
    139  CE1       37.9550   12.4150   80.4940 C.ar  123  PHE123     -0.0003
    140  CE2       39.2520   10.4520   80.8150 C.ar  123  PHE123     -0.0003
    141  CZ        38.5650   11.5460   81.3230 C.ar  123  PHE123     -0.0000
    142  N         41.2920    6.9970   75.0310 N.3   126  LEU126     -0.1245
    143  CA        41.0650    6.4440   76.3750 C.3   126  LEU126      0.1561
    144  C         39.5930    6.5350   76.7280 C.2   126  LEU126      0.2260
    145  O         39.1220    5.9790   77.7360 O.2   126  LEU126     -0.2867
    146  CB        41.9510    7.2020   77.3420 C.3   126  LEU126      0.0270
    147  CG        41.9120    6.8330   78.8130 C.3   126  LEU126      0.0019
    148  CD1       42.2650    5.3800   79.0560 C.3   126  LEU126      0.0001
    149  CD2       42.8720    7.7110   79.5960 C.3   126  LEU126      0.0001
    150  N         45.9160    7.4260   81.6070 N.3   212  GLY212     -0.1225
    151  CA        45.6600    8.8490   81.5220 C.3   212  GLY212      0.1811
    152  C         46.9570    9.6380   81.4700 C.2   212  GLY212      0.2280
    153  O         47.0290   10.5770   80.6760 O.2   212  GLY212     -0.2866
    154  N         48.1070    9.3100   77.9580 N.3   215  ARG215     -0.1231
    155  CA        47.2900   10.1790   77.0890 C.3   215  ARG215      0.1694
    156  C         47.7530   11.6270   77.2440 C.2   215  ARG215      0.2591
    157  O         47.7850   12.3670   76.2650 O.2   215  ARG215     -0.2718
    158  CB        45.8080   10.0050   77.4100 C.3   215  ARG215      0.0321
    159  CG        44.9290   11.0470   76.6880 C.3   215  ARG215      0.0489
    160  CD        45.0190   10.9330   75.2030 C.3   215  ARG215      0.2205
    161  NE        44.2120   11.9040   74.4760 N.pl3 215  ARG215     -0.0865
    162  CZ        44.5690   12.5290   73.3530 C.cat 215  ARG215      0.5346
    163  NH1       45.7450   12.3980   72.7700 N.pl3 215  ARG215      0.1354
    164  NH2       43.6920   13.3500   72.8170 N.pl3 215  ARG215      0.1354
    165  N         48.1410   12.0720   78.4310 N.am  216  ALA216     -0.1980
    166  CA        48.6120   13.4500   78.6430 C.3   216  ALA216      0.1597
    167  C         49.8030   13.7200   77.7110 C.2   216  ALA216      0.2287
    168  O         49.9250   14.8020   77.1220 O.2   216  ALA216     -0.2864
    169  CB        48.9590   13.7220   80.0650 C.3   216  ALA216      0.0319
    170  N         48.4230   14.2010   74.1910 N.3   219  LEU219     -0.1245
    171  CA        47.5540   15.3790   74.1650 C.3   219  LEU219      0.1561
    172  C         48.3700   16.6620   74.1190 C.2   219  LEU219      0.2260
    173  O         48.0260   17.6700   73.4830 O.2   219  LEU219     -0.2867
    174  CB        46.5890   15.2890   75.3640 C.3   219  LEU219      0.0270
    175  CG        45.5350   16.3200   75.5540 C.3   219  LEU219      0.0019
    176  CD1       44.5900   16.4120   74.3540 C.3   219  LEU219      0.0001
    177  CD2       44.7700   15.9790   76.8370 C.3   219  LEU219      0.0001
    178  N         49.8410   22.7490   79.1480 N.3   227  MET227     -0.1245
    179  CA        48.7220   22.4620   80.0100 C.3   227  MET227      0.1570
    180  C         48.7500   23.3880   81.2290 C.2   227  MET227      0.2261
    181  O         49.7830   23.9340   81.5670 O.2   227  MET227     -0.2867
    182  CB        48.8380   21.0010   80.4330 C.3   227  MET227      0.0387
    183  CG        48.5230   20.0410   79.3310 C.3   227  MET227      0.0595
    184  SD        48.3960   18.3530   79.9310 S.3   227  MET227     -0.1393
    185  CE        47.9050   17.5720   78.4260 C.3   227  MET227      0.0692
    186  N         47.8030   21.0730   86.5320 N.3   231  ILE231     -0.1245
    187  CA        47.8070   19.7960   85.8010 C.3   231  ILE231      0.1561
    188  C         49.2410   19.3460   85.6190 C.2   231  ILE231      0.2260
    189  O         49.5560   18.1730   85.8270 O.2   231  ILE231     -0.2867
    190  CB        47.0070   19.9050   84.5040 C.3   231  ILE231      0.0252
    191  CG1       45.5090   20.0730   84.8110 C.3   231  ILE231      0.0019
    192  CG2       47.2700   18.6970   83.6240 C.3   231  ILE231      0.0019
    193  CD1       44.6570   20.4680   83.5870 C.3   231  ILE231      0.0001
    194  N         50.5500   17.8340   88.7400 N.3   234  MET234     -0.1230
    195  CA        50.0070   16.5040   88.9590 C.3   234  MET234      0.1702
    196  C         50.7430   15.4550   88.1570 C.2   234  MET234      0.2592
    197  O         50.9630   14.3220   88.5920 O.2   234  MET234     -0.2718
    198  CB        48.5060   16.5780   88.5790 C.3   234  MET234      0.0401
    199  CG        47.8380   15.2290   88.5570 C.3   234  MET234      0.0596
    200  SD        46.0770   15.3640   88.2610 S.3   234  MET234     -0.1393
    201  CE        46.0840   15.7540   86.4930 C.3   234  MET234      0.0692
    202  N         51.1050   15.8210   86.9110 N.am  235  LEU235     -0.1980
    203  CA        51.7450   14.9200   85.9660 C.3   235  LEU235      0.1596
    204  C         53.2060   14.6710   86.1890 C.2   235  LEU235      0.2287
    205  O         53.7610   13.6880   85.7170 O.2   235  LEU235     -0.2864
    206  CB        51.5300   15.4230   84.5200 C.3   235  LEU235      0.0297
    207  CG        50.0840   15.3920   84.0350 C.3   235  LEU235      0.0022
    208  CD1       50.0090   16.0850   82.6800 C.3   235  LEU235      0.0001
    209  CD2       49.5490   13.9470   83.9690 C.3   235  LEU235      0.0001
@<TRIPOS>BOND
     1   163   162    1
     2   164   162    1
     3   162   161    2
     4   173   172    2
     5   172   171    1
     6   171   170    1
     7   171   174    1
     8   176   175    1
     9   161   160    1
    10    16    17    1
    11    16    13    1
    12   142   143    1
    13    12    13    1
    14   160   159    1
    15   133   134    2
    16   133   132    1
    17   127   128    1
    18   174   175    1
    19   175   177    1
    20   128   129    1
    21    18    17   ar
    22    18    20   ar
    23    17    19   ar
    24   130   129    2
    25   129   131   am
    26    13    14    1
    27   131   132    1
    28   157   156    2
    29   143   144    1
    30   143   146    1
    31    20    21   ar
    32   132   135    1
    33   159   158    1
    34   144   145    2
    35    19    21   ar
    36    19    22   ar
    37    14    15    2
    38   135   136    1
    39   155   156    1
    40   155   158    1
    41   155   154    1
    42   168   167    2
    43   156   165   am
    44    21    23   ar
    45   146   147    1
    46    22    24   ar
    47   167   166    1
    48    23    25   ar
    49   185   184    1
    50   165   166    1
    51    24    25   ar
    52   136   137   ar
    53   136   138   ar
    54   166   169    1
    55   147   148    1
    56   147   149    1
    57   137   139   ar
    58   178   179    1
    59   183   184    1
    60   183   182    1
    61    30    31    1
    62    30    27    1
    63   138   140   ar
    64    26    27    1
    65    31    33   ar
    66    31    32   ar
    67   179   182    1
    68   179   180    1
    69    33    35   ar
    70    32    34   ar
    71    35    36   ar
    72    27    28    1
    73   139   141   ar
    74   153   152    2
    75   140   141   ar
    76    36    34   ar
    77   180   181    2
    78    28    29    2
    79   152   151    1
    80   151   150    1
    81   118   120   ar
    82   118   116   ar
    83   120   119   ar
    84   208   207    1
    85   116   115   ar
    86    43    42    1
    87   119   117   ar
    88    79    78    1
    89   193   191    1
    90   192   190    1
    91   115   117   ar
    92   115   114    1
    93   209   207    1
    94   207   206    1
    95    42    41    1
    96    42    44    1
    97    37    38    1
    98   190   191    1
    99   190   187    1
   100   206   203    1
   101    96    98    1
   102    96    95    1
   103    41    38    1
   104    78    77    1
   105   114   111    1
   106    49    46    1
   107   110   111    1
   108    97    95    1
   109    63    61    1
   110    38    39    1
   111    45    46    1
   112    45    39   am
   113   102   101    2
   114   188   187    1
   115   188   189    2
   116    77    76    1
   117    62    61    1
   118   205   204    2
   119    95    92    1
   120   187   186    1
   121   111   112    1
   122   203   204    1
   123   203   202    1
   124    46    47    1
   125    39    40    2
   126    61    60    1
   127    94    93    2
   128   101   100    1
   129   201   200    1
   130    93    92    1
   131    76    73    1
   132   202   196   am
   133    92    91    1
   134   112   113    2
   135   112   121   am
   136    47    48    2
   137    73    74    1
   138    73    72    1
   139    75    74    2
   140   103   100    1
   141   103   104    1
   142    60    57    1
   143   100    99    1
   144   121   122    1
   145    70    69    1
   146    72    66   am
   147    91    82   am
   148   196   197    2
   149   196   195    1
   150    67    66    2
   151   200   199    1
   152    59    58    2
   153    68    69    1
   154    68    65    1
   155    66    65    1
   156   199   198    1
   157   198   195    1
   158    57    58    1
   159    57    56    1
   160   194   195    1
   161   104   105    1
   162    69    71    1
   163   123   122    1
   164   123   124    2
   165   122   125    1
   166   108   107    1
   167   105   106    1
   168    82    83    2
   169    82    81    1
   170    65    64    1
   171    54    51    1
   172    54    55    1
   173    50    51    1
   174   125   126    1
   175   107   106    2
   176   107   109    1
   177    80    81    1
   178    81    84    1
   179    51    52    1
   180    84    85    1
   181    11    10   ar
   182    11     9   ar
   183    52    53    2
   184    10     8   ar
   185    85    86    1
   186     9     7   ar
   187    86    87    1
   188     8     6   ar
   189     7     6   ar
   190     6     5    1
   191    87    88    2
   192    89    88    1
   193    88    90    1
   194     5     2    1
   195     3     2    1
   196     3     4    2
   197     2     1    1
