@<TRIPOS>MOLECULE
tmp/1fczA00.pdb
 216 203 0 0 0
SMALL
GASTEIGER

@<TRIPOS>ATOM
      1  N         32.7600   18.3210   96.7240 N.3    19  PHE19      -0.1241
      2  CA        32.3540   17.5460   95.5590 C.3    19  PHE19       0.1605
      3  C         30.8370   17.3700   95.5370 C.2    19  PHE19       0.2264
      4  O         30.3070   16.3870   96.0520 O.2    19  PHE19      -0.2867
      5  CB        33.0300   16.1900   95.4490 C.3    19  PHE19       0.0534
      6  CG        32.9190   15.6380   94.0100 C.ar   19  PHE19      -0.0203
      7  CD1       32.1860   14.5370   93.7330 C.ar   19  PHE19      -0.0042
      8  CD2       33.5720   16.2770   92.9810 C.ar   19  PHE19      -0.0042
      9  CE1       32.1210   14.0610   92.4040 C.ar   19  PHE19      -0.0003
     10  CE2       33.5600   15.8570   91.6800 C.ar   19  PHE19      -0.0003
     11  CZ        32.8260   14.7150   91.4140 C.ar   19  PHE19      -0.0000
     12  N         38.5590   21.4060   75.4540 N.3    45  TRP45      -0.1241
     13  CA        39.7740   21.2590   76.2500 C.3    45  TRP45       0.1605
     14  C         39.9150   22.4400   77.2020 C.2    45  TRP45       0.2264
     15  O         40.2430   22.2810   78.3770 O.2    45  TRP45      -0.2867
     16  CB        41.0470   21.0650   75.3600 C.3    45  TRP45       0.0550
     17  CG        42.2650   21.4300   76.1360 C.ar   45  TRP45       0.0003
     18  CD1       43.0250   22.5470   76.0290 C.ar   45  TRP45       0.0946
     19  CD2       42.8260   20.6310   77.1980 C.ar   45  TRP45       0.0152
     20  NE1       44.0500   22.4710   76.9660 N.ar   45  TRP45      -0.2442
     21  CE2       43.9480   21.3200   77.6870 C.ar   45  TRP45       0.0810
     22  CE3       42.5320   19.3990   77.7820 C.ar   45  TRP45       0.0012
     23  CZ2       44.7640   20.8630   78.7140 C.ar   45  TRP45       0.0191
     24  CZ3       43.3160   18.9490   78.7970 C.ar   45  TRP45       0.0001
     25  CH2       44.4370   19.6670   79.2710 C.ar   45  TRP45       0.0015
     26  N         37.2650   22.0090   80.0120 N.3    48  PHE48      -0.1241
     27  CA        37.5710   20.8200   80.8180 C.3    48  PHE48       0.1605
     28  C         38.7910   21.0450   81.7110 C.2    48  PHE48       0.2264
     29  O         38.7680   20.7300   82.8990 O.2    48  PHE48      -0.2867
     30  CB        37.8070   19.6550   79.8330 C.3    48  PHE48       0.0534
     31  CG        38.4590   18.4770   80.5520 C.ar   48  PHE48      -0.0203
     32  CD1       37.7890   17.6980   81.4560 C.ar   48  PHE48      -0.0042
     33  CD2       39.7810   18.2070   80.3150 C.ar   48  PHE48      -0.0042
     34  CE1       38.4290   16.6630   82.0950 C.ar   48  PHE48      -0.0003
     35  CE2       40.4480   17.1520   80.9430 C.ar   48  PHE48      -0.0003
     36  CZ        39.7690   16.4180   81.8760 C.ar   48  PHE48      -0.0000
     37  N         38.0240   23.2950   84.6000 N.3    51  LEU51      -0.1231
     38  CA        37.2830   22.5510   85.6270 C.3    51  LEU51       0.1693
     39  C         38.1910   21.5890   86.3730 C.2    51  LEU51       0.2591
     40  O         38.0670   21.4260   87.6060 O.2    51  LEU51      -0.2718
     41  CB        36.1020   21.8190   84.9670 C.3    51  LEU51       0.0284
     42  CG        34.9930   22.7280   84.4680 C.3    51  LEU51       0.0019
     43  CD1       34.0780   21.9490   83.5440 C.3    51  LEU51       0.0001
     44  CD2       34.2460   23.3670   85.6170 C.3    51  LEU51       0.0001
     45  N         39.1280   20.9350   85.6920 N.am   52  ALA52      -0.1980
     46  CA        40.0920   20.0440   86.3820 C.3    52  ALA52       0.1597
     47  C         40.9600   20.8050   87.3610 C.2    52  ALA52       0.2287
     48  O         41.1760   20.3430   88.4800 O.2    52  ALA52      -0.2864
     49  CB        40.9360   19.3210   85.3430 C.3    52  ALA52       0.0319
     50  N         38.9460   21.4260   90.4400 N.3    55  CYS55      -0.1235
     51  CA        38.7480   20.2110   91.2300 C.3    55  CYS55       0.1677
     52  C         40.0300   19.7650   91.9190 C.2    55  CYS55       0.2270
     53  O         39.9690   19.2360   93.0150 O.2    55  CYS55      -0.2867
     54  CB        38.1400   19.0940   90.3770 C.3    55  CYS55       0.0956
     55  SG        37.4680   17.7110   91.3180 S.3    55  CYS55      -0.0801
     56  N         45.2710   12.4410   90.2860 N.3    86  LEU86      -0.1245
     57  CA        44.6430   12.0150   89.0320 C.3    86  LEU86       0.1561
     58  C         43.6810   10.8630   89.3040 C.2    86  LEU86       0.2260
     59  O         42.5640   10.8290   88.7620 O.2    86  LEU86      -0.2867
     60  CB        45.6350   11.6700   87.9470 C.3    86  LEU86       0.0270
     61  CG        45.0630   11.3560   86.5640 C.3    86  LEU86       0.0019
     62  CD1       44.1120   12.4620   86.0900 C.3    86  LEU86       0.0001
     63  CD2       46.2030   11.1160   85.6080 C.3    86  LEU86       0.0001
     64  N         40.5310   12.4960   90.7590 N.3    89  LEU89      -0.1231
     65  CA        39.8240   13.1760   89.6770 C.3    89  LEU89       0.1693
     66  C         38.9990   12.1840   88.8400 C.2    89  LEU89       0.2591
     67  O         37.8120   12.3700   88.5350 O.2    89  LEU89      -0.2718
     68  CB        40.7880   13.9220   88.7320 C.3    89  LEU89       0.0284
     69  CG        41.3420   15.2390   89.2970 C.3    89  LEU89       0.0019
     70  CD1       42.4850   15.7030   88.4280 C.3    89  LEU89       0.0001
     71  CD2       40.2870   16.3370   89.4380 C.3    89  LEU89       0.0001
     72  N         39.6540   11.0850   88.4480 N.am   90  MET90      -0.1979
     73  CA        38.9790   10.1030   87.6140 C.3    90  MET90       0.1605
     74  C         37.8540    9.4450   88.3610 C.2    90  MET90       0.2287
     75  O         36.7630    9.2220   87.7950 O.2    90  MET90      -0.2864
     76  CB        40.0070    9.0560   87.0810 C.3    90  MET90       0.0413
     77  CG        41.0050    9.6850   86.1200 C.3    90  MET90       0.0598
     78  SD        42.0680    8.4860   85.3630 S.3    90  MET90      -0.1393
     79  CE        42.3280    9.2120   83.7800 C.3    90  MET90       0.0692
     80  N         36.1300   10.7380   90.7700 N.3    92  ARG92      -0.1231
     81  CA        35.1270   11.7950   90.9040 C.3    92  ARG92       0.1694
     82  C         34.2790   11.8920   89.6490 C.2    92  ARG92       0.2591
     83  O         33.0380   11.8180   89.7210 O.2    92  ARG92      -0.2718
     84  CB        35.7870   13.1050   91.3100 C.3    92  ARG92       0.0321
     85  CG        36.1150   13.2460   92.8040 C.3    92  ARG92       0.0489
     86  CD        36.8040   14.5270   93.1830 C.3    92  ARG92       0.2205
     87  NE        36.7610   14.6920   94.6350 N.pl3  92  ARG92      -0.0865
     88  CZ        36.6390   15.8270   95.3230 C.cat  92  ARG92       0.5346
     89  NH1       36.6300   17.0250   94.7690 N.pl3  92  ARG92       0.1354
     90  NH2       36.5790   15.8250   96.6760 N.pl3  92  ARG92       0.1354
     91  N         34.8750   12.0500   88.4750 N.am   93  ILE93      -0.1980
     92  CA        34.0550   12.2600   87.2680 C.3    93  ILE93       0.1595
     93  C         33.2370   11.0120   86.9960 C.2    93  ILE93       0.2287
     94  O         32.0810   11.0850   86.5590 O.2    93  ILE93      -0.2864
     95  CB        34.8790   12.7660   86.0820 C.3    93  ILE93       0.0276
     96  CG1       33.9700   13.3700   85.0020 C.3    93  ILE93       0.0022
     97  CG2       35.7600   11.6920   85.4740 C.3    93  ILE93       0.0022
     98  CD1       33.0750   14.5230   85.4210 C.3    93  ILE93       0.0001
     99  N         29.9050   10.7040   88.5100 N.3    96  ARG96      -0.1245
    100  CA        28.9320   11.6130   87.9450 C.3    96  ARG96       0.1563
    101  C         28.4440   11.1540   86.5700 C.2    96  ARG96       0.2260
    102  O         28.0280   11.9580   85.7540 O.2    96  ARG96      -0.2867
    103  CB        29.5080   13.0380   87.8280 C.3    96  ARG96       0.0307
    104  CG        29.8820   13.6630   89.1540 C.3    96  ARG96       0.0489
    105  CD        28.9180   14.8040   89.4520 C.3    96  ARG96       0.2205
    106  NE        29.3540   15.6410   90.5680 N.pl3  96  ARG96      -0.0865
    107  CZ        30.2870   16.5380   90.4960 C.cat  96  ARG96       0.5346
    108  NH1       30.9410   16.7210   89.3540 N.pl3  96  ARG96       0.1354
    109  NH2       30.6460   17.2540   91.5260 N.pl3  96  ARG96       0.1354
    110  N         30.2910   17.6250   85.3940 N.3   106  PHE106     -0.1227
    111  CA        31.3370   18.3280   86.1420 C.3   106  PHE106      0.1736
    112  C         30.7010   19.1550   87.2500 C.2   106  PHE106      0.2596
    113  O         29.4960   19.2710   87.3710 O.2   106  PHE106     -0.2718
    114  CB        32.1790   19.1810   85.1700 C.3   106  PHE106      0.0547
    115  CG        32.8690   18.3230   84.1280 C.ar  106  PHE106     -0.0202
    116  CD1       32.2870   17.9340   82.9340 C.ar  106  PHE106     -0.0042
    117  CD2       34.1570   17.9090   84.4430 C.ar  106  PHE106     -0.0042
    118  CE1       32.9760   17.0860   82.0770 C.ar  106  PHE106     -0.0003
    119  CE2       34.8400   17.0850   83.5690 C.ar  106  PHE106     -0.0003
    120  CZ        34.2700   16.6920   82.3750 C.ar  106  PHE106     -0.0000
    121  N         31.5820   19.7330   88.0820 N.am  107  SER107     -0.1952
    122  CA        31.1300   20.3180   89.3270 C.3   107  SER107      0.1924
    123  C         30.3640   21.6320   89.1530 C.2   107  SER107      0.2314
    124  O         29.7960   22.1000   90.1220 O.2   107  SER107     -0.2863
    125  CB        32.3150   20.4570   90.3040 C.3   107  SER107      0.2116
    126  OG        32.7300   19.2080   90.7990 O.3   107  SER107     -0.2180
    127  N         39.5920   15.9000   75.4580 N.3   121  GLY121     -0.1210
    128  CA        40.9600   15.4870   75.7270 C.3   121  GLY121      0.1956
    129  C         41.1190   14.0210   76.0690 C.2   121  GLY121      0.2611
    130  O         42.2220   13.5000   76.0470 O.2   121  GLY121     -0.2717
    131  N         40.0580   13.3260   76.4510 N.am  122  PHE122     -0.1976
    132  CA        40.1860   11.9100   76.8090 C.3   122  PHE122      0.1639
    133  C         40.6640   11.0940   75.6130 C.2   122  PHE122      0.2290
    134  O         41.4180   10.1530   75.8580 O.2   122  PHE122     -0.2864
    135  CB        38.8680   11.3810   77.3770 C.3   122  PHE122      0.0560
    136  CG        38.6060   11.8450   78.8120 C.ar  122  PHE122     -0.0200
    137  CD1       38.0500   13.0830   79.0610 C.ar  122  PHE122     -0.0042
    138  CD2       38.9460   11.0400   79.8950 C.ar  122  PHE122     -0.0042
    139  CE1       37.8230   13.5170   80.3520 C.ar  122  PHE122     -0.0003
    140  CE2       38.7120   11.4720   81.1820 C.ar  122  PHE122     -0.0003
    141  CZ        38.1700   12.7100   81.4310 C.ar  122  PHE122     -0.0000
    142  N         41.4310    7.1740   75.3930 N.3   125  LEU125     -0.1245
    143  CA        41.1250    6.6380   76.7390 C.3   125  LEU125      0.1561
    144  C         39.6470    6.7010   77.1000 C.2   125  LEU125      0.2260
    145  O         39.2020    6.1350   78.1230 O.2   125  LEU125     -0.2867
    146  CB        41.9510    7.4020   77.7490 C.3   125  LEU125      0.0270
    147  CG        41.9620    6.9730   79.2010 C.3   125  LEU125      0.0019
    148  CD1       42.3110    5.5070   79.3090 C.3   125  LEU125      0.0001
    149  CD2       42.9170    7.8530   79.9880 C.3   125  LEU125      0.0001
    150  N         37.5800    4.8140   80.3110 N.3   129  VAL129     -0.1245
    151  CA        37.0480    5.5600   81.4530 C.3   129  VAL129      0.1561
    152  C         35.5400    5.2960   81.6310 C.2   129  VAL129      0.2260
    153  O         35.0870    5.0890   82.7660 O.2   129  VAL129     -0.2867
    154  CB        37.4120    7.0450   81.2720 C.3   129  VAL129      0.0252
    155  CG1       36.6750    7.8760   82.3160 C.3   129  VAL129      0.0019
    156  CG2       38.9130    7.2600   81.4340 C.3   129  VAL129      0.0019
    157  N         45.9440    7.5560   81.9810 N.3   211  GLY211     -0.1225
    158  CA        45.6630    8.9990   81.9000 C.3   211  GLY211      0.1811
    159  C         46.9140    9.8430   81.8580 C.2   211  GLY211      0.2280
    160  O         46.9530   10.8120   81.1050 O.2   211  GLY211     -0.2866
    161  N         48.1420    9.5260   78.3900 N.3   214  ARG214     -0.1231
    162  CA        47.3510   10.3680   77.4960 C.3   214  ARG214      0.1694
    163  C         47.7480   11.8290   77.6160 C.2   214  ARG214      0.2591
    164  O         47.7790   12.5890   76.6320 O.2   214  ARG214     -0.2718
    165  CB        45.8710   10.1590   77.7880 C.3   214  ARG214      0.0321
    166  CG        44.9760   11.1140   76.9880 C.3   214  ARG214      0.0489
    167  CD        45.1350   10.9740   75.5150 C.3   214  ARG214      0.2205
    168  NE        44.2910   11.9230   74.7760 N.pl3 214  ARG214     -0.0865
    169  CZ        44.6350   12.5500   73.6480 C.cat 214  ARG214      0.5346
    170  NH1       45.8230   12.4130   73.0730 N.pl3 214  ARG214      0.1354
    171  NH2       43.7810   13.3830   73.0480 N.pl3 214  ARG214      0.1354
    172  N         48.0840   12.2610   78.8280 N.am  215  ALA215     -0.1980
    173  CA        48.5180   13.6230   79.0400 C.3   215  ALA215      0.1597
    174  C         49.7690   13.9040   78.1920 C.2   215  ALA215      0.2287
    175  O         49.8620   15.0100   77.6540 O.2   215  ALA215     -0.2864
    176  CB        48.7850   13.9730   80.5040 C.3   215  ALA215      0.0319
    177  N         48.4680   14.4080   74.5980 N.3   218  LEU218     -0.1245
    178  CA        47.6160   15.6120   74.5300 C.3   218  LEU218      0.1561
    179  C         48.4510   16.8750   74.4730 C.2   218  LEU218      0.2260
    180  O         48.1370   17.8750   73.8250 O.2   218  LEU218     -0.2867
    181  CB        46.6700   15.5090   75.6920 C.3   218  LEU218      0.0270
    182  CG        45.5420   16.4490   75.9290 C.3   218  LEU218      0.0019
    183  CD1       44.6850   16.5240   74.6790 C.3   218  LEU218      0.0001
    184  CD2       44.7600   15.9630   77.1510 C.3   218  LEU218      0.0001
    185  N         49.8430   22.8850   79.5580 N.3   226  MET226     -0.1245
    186  CA        48.6920   22.5910   80.3910 C.3   226  MET226      0.1570
    187  C         48.7100   23.5250   81.5950 C.2   226  MET226      0.2261
    188  O         49.7470   24.0580   81.9680 O.2   226  MET226     -0.2867
    189  CB        48.6940   21.1540   80.8560 C.3   226  MET226      0.0387
    190  CG        48.4040   20.1580   79.7240 C.3   226  MET226      0.0595
    191  SD        48.1970   18.4950   80.3380 S.3   226  MET226     -0.1393
    192  CE        47.7060   17.6830   78.8260 C.3   226  MET226      0.0692
    193  N         47.7130   21.2510   86.9210 N.3   230  ILE230     -0.1245
    194  CA        47.7290   19.9780   86.2060 C.3   230  ILE230      0.1561
    195  C         49.1770   19.5260   86.0160 C.2   230  ILE230      0.2260
    196  O         49.4810   18.3290   86.2350 O.2   230  ILE230     -0.2867
    197  CB        46.9280   20.0800   84.9120 C.3   230  ILE230      0.0252
    198  CG1       45.4160   20.2520   85.2140 C.3   230  ILE230      0.0019
    199  CG2       47.1880   18.8770   84.0400 C.3   230  ILE230      0.0019
    200  CD1       44.5660   20.6040   83.9940 C.3   230  ILE230      0.0001
    201  N         50.4870   18.0400   89.1860 N.3   233  MET233     -0.1230
    202  CA        49.9580   16.6890   89.3650 C.3   233  MET233      0.1702
    203  C         50.7000   15.6670   88.5760 C.2   233  MET233      0.2592
    204  O         50.9550   14.5440   89.0640 O.2   233  MET233     -0.2718
    205  CB        48.4180   16.7480   89.0510 C.3   233  MET233      0.0401
    206  CG        47.7800   15.3900   88.9700 C.3   233  MET233      0.0596
    207  SD        46.0410   15.5060   88.6790 S.3   233  MET233     -0.1393
    208  CE        46.0300   15.9110   86.9260 C.3   233  MET233      0.0692
    209  N         51.0460   16.0130   87.3460 N.am  234  LEU234     -0.1980
    210  CA        51.6390   15.0590   86.4190 C.3   234  LEU234      0.1596
    211  C         53.1150   14.8350   86.6780 C.2   234  LEU234      0.2287
    212  O         53.6420   13.8180   86.2320 O.2   234  LEU234     -0.2864
    213  CB        51.4020   15.5520   84.9730 C.3   234  LEU234      0.0297
    214  CG        49.9250   15.5390   84.5290 C.3   234  LEU234      0.0022
    215  CD1       49.7990   16.1970   83.1590 C.3   234  LEU234      0.0001
    216  CD2       49.3710   14.1300   84.5020 C.3   234  LEU234      0.0001
@<TRIPOS>BOND
     1   171   169    1
     2   170   169    1
     3   169   168    2
     4   180   179    2
     5   179   178    1
     6   178   177    1
     7   178   181    1
     8   183   182    1
     9   168   167    1
    10    16    17    1
    11    16    13    1
    12   142   143    1
    13    12    13    1
    14   127   128    1
    15   167   166    1
    16   133   134    2
    17   133   132    1
    18   181   182    1
    19   128   129    1
    20   182   184    1
    21    18    17   ar
    22    18    20   ar
    23   130   129    2
    24   129   131   am
    25    17    19   ar
    26    13    14    1
    27   131   132    1
    28   164   163    2
    29   143   144    1
    30   143   146    1
    31   132   135    1
    32    20    21   ar
    33   166   165    1
    34   144   145    2
    35    19    21   ar
    36    19    22   ar
    37    14    15    2
    38   135   136    1
    39   162   163    1
    40   162   165    1
    41   162   161    1
    42   163   172   am
    43   175   174    2
    44    21    23   ar
    45   146   147    1
    46    22    24   ar
    47   174   173    1
    48    23    25   ar
    49    24    25   ar
    50   136   137   ar
    51   136   138   ar
    52   192   191    1
    53   172   173    1
    54   173   176    1
    55   137   139   ar
    56   147   148    1
    57   147   149    1
    58   185   186    1
    59   190   191    1
    60   190   189    1
    61    30    31    1
    62    30    27    1
    63   138   140   ar
    64    26    27    1
    65   150   151    1
    66    33    31   ar
    67    33    35   ar
    68   139   141   ar
    69   186   189    1
    70   186   187    1
    71    31    32   ar
    72    27    28    1
    73    35    36   ar
    74   160   159    2
    75   140   141   ar
    76   154   156    1
    77   154   151    1
    78   154   155    1
    79   151   152    1
    80    32    34   ar
    81   187   188    2
    82   152   153    2
    83    28    29    2
    84   159   158    1
    85    36    34   ar
    86   158   157    1
    87   118   120   ar
    88   118   116   ar
    89   120   119   ar
    90   116   115   ar
    91   215   214    1
    92    43    42    1
    93   119   117   ar
    94    79    78    1
    95   200   198    1
    96   199   197    1
    97   115   117   ar
    98   115   114    1
    99    42    41    1
   100    42    44    1
   101   216   214    1
   102   214   213    1
   103    37    38    1
   104   197   198    1
   105   197   194    1
   106    41    38    1
   107   213   210    1
   108    96    98    1
   109    96    95    1
   110   114   111    1
   111    49    46    1
   112    78    77    1
   113   110   111    1
   114    97    95    1
   115    63    61    1
   116    38    39    1
   117    45    39   am
   118    45    46    1
   119   102   101    2
   120   195   194    1
   121   195   196    2
   122    95    92    1
   123    62    61    1
   124    77    76    1
   125   111   112    1
   126   194   193    1
   127   212   211    2
   128    39    40    2
   129    46    47    1
   130   210   211    1
   131   210   209    1
   132    94    93    2
   133    61    60    1
   134   101   100    1
   135   208   207    1
   136    93    92    1
   137    76    73    1
   138   112   113    2
   139   112   121   am
   140    92    91    1
   141   209   203   am
   142    47    48    2
   143    73    74    1
   144    73    72    1
   145    75    74    2
   146   103   100    1
   147   103   104    1
   148   100    99    1
   149    60    57    1
   150   121   122    1
   151    70    69    1
   152    72    66   am
   153    91    82   am
   154    67    66    2
   155   203   204    2
   156   203   202    1
   157   207   206    1
   158    68    69    1
   159    68    65    1
   160    59    58    2
   161    66    65    1
   162   206   205    1
   163    57    58    1
   164    57    56    1
   165   205   202    1
   166   123   122    1
   167   123   124    2
   168   104   105    1
   169   201   202    1
   170    69    71    1
   171   122   125    1
   172   108   107    1
   173   105   106    1
   174    82    83    2
   175    82    81    1
   176    65    64    1
   177   125   126    1
   178    54    51    1
   179    54    55    1
   180    50    51    1
   181   107   106    2
   182   107   109    1
   183    80    81    1
   184    81    84    1
   185    51    52    1
   186    84    85    1
   187    11    10   ar
   188    11     9   ar
   189    10     8   ar
   190    52    53    2
   191     9     7   ar
   192    85    86    1
   193     8     6   ar
   194    86    87    1
   195     7     6   ar
   196     6     5    1
   197    87    88    2
   198    89    88    1
   199    88    90    1
   200     5     2    1
   201     3     2    1
   202     3     4    2
   203     2     1    1
