@<TRIPOS>MOLECULE
tmp/1fd0A00.pdb
 137 128 0 0 0
SMALL
GASTEIGER

@<TRIPOS>ATOM
      1  N         38.4530   21.4840   75.3120 N.3    45  TRP45      -0.1241
      2  CA        39.6780   21.3500   76.1450 C.3    45  TRP45       0.1605
      3  C         39.8220   22.5120   77.0910 C.2    45  TRP45       0.2264
      4  O         40.1720   22.3600   78.2540 O.2    45  TRP45      -0.2867
      5  CB        40.8920   21.2090   75.1860 C.3    45  TRP45       0.0550
      6  CG        42.1570   21.5440   75.9150 C.ar   45  TRP45       0.0003
      7  CD1       42.9550   22.6200   75.7350 C.ar   45  TRP45       0.0946
      8  CD2       42.7720   20.7930   76.9610 C.ar   45  TRP45       0.0152
      9  NE1       44.0180   22.5800   76.5980 N.ar   45  TRP45      -0.2442
     10  CE2       43.9180   21.4560   77.3730 C.ar   45  TRP45       0.0810
     11  CE3       42.4360   19.5980   77.6120 C.ar   45  TRP45       0.0012
     12  CZ2       44.7770   21.0240   78.3790 C.ar   45  TRP45       0.0191
     13  CZ3       43.2670   19.1590   78.6030 C.ar   45  TRP45       0.0001
     14  CH2       44.4290   19.8590   79.0010 C.ar   45  TRP45       0.0015
     15  N         37.3120   22.0120   79.8830 N.3    48  PHE48      -0.1241
     16  CA        37.6600   20.7870   80.6480 C.3    48  PHE48       0.1605
     17  C         38.8630   20.9850   81.5330 C.2    48  PHE48       0.2264
     18  O         38.8690   20.6510   82.7180 O.2    48  PHE48      -0.2867
     19  CB        37.8830   19.7050   79.5960 C.3    48  PHE48       0.0534
     20  CG        38.3650   18.4000   80.1850 C.ar   48  PHE48      -0.0203
     21  CD1       37.5070   17.4930   80.7620 C.ar   48  PHE48      -0.0042
     22  CD2       39.7320   18.0940   80.1420 C.ar   48  PHE48      -0.0042
     23  CE1       38.0200   16.3390   81.3020 C.ar   48  PHE48      -0.0003
     24  CE2       40.2240   16.9180   80.6310 C.ar   48  PHE48      -0.0003
     25  CZ        39.3260   15.9930   81.1660 C.ar   48  PHE48      -0.0000
     26  N         39.1990   20.8040   85.5200 N.3    52  ALA52      -0.1245
     27  CA        40.1790   19.9240   86.1650 C.3    52  ALA52       0.1562
     28  C         40.9860   20.6820   87.2030 C.2    52  ALA52       0.2260
     29  O         41.1680   20.2040   88.3310 O.2    52  ALA52      -0.2867
     30  CB        41.0570   19.3080   85.1070 C.3    52  ALA52       0.0290
     31  N         45.1310   12.1730   90.2000 N.3    86  LEU86      -0.1245
     32  CA        44.4640   11.7150   89.0030 C.3    86  LEU86       0.1561
     33  C         43.5610   10.5210   89.2930 C.2    86  LEU86       0.2260
     34  O         42.5040   10.4080   88.6990 O.2    86  LEU86      -0.2867
     35  CB        45.4640   11.4470   87.8830 C.3    86  LEU86       0.0270
     36  CG        44.8930   11.1830   86.4930 C.3    86  LEU86       0.0019
     37  CD1       43.9270   12.2600   86.0440 C.3    86  LEU86       0.0001
     38  CD2       46.0480   11.0020   85.4820 C.3    86  LEU86       0.0001
     39  N         40.4720   12.2140   90.7440 N.3    89  LEU89      -0.1231
     40  CA        39.7810   12.8380   89.6230 C.3    89  LEU89       0.1693
     41  C         38.9650   11.7990   88.8460 C.2    89  LEU89       0.2591
     42  O         37.7730   11.9950   88.5210 O.2    89  LEU89      -0.2718
     43  CB        40.7320   13.5700   88.6950 C.3    89  LEU89       0.0284
     44  CG        41.2650   14.9060   89.1880 C.3    89  LEU89       0.0019
     45  CD1       42.5040   15.3080   88.4130 C.3    89  LEU89       0.0001
     46  CD2       40.1790   15.9730   89.1910 C.3    89  LEU89       0.0001
     47  N         39.5890   10.6910   88.4920 N.am   90  MET90      -0.1979
     48  CA        38.9320    9.6280   87.7460 C.3    90  MET90       0.1605
     49  C         37.7600    9.0970   88.5480 C.2    90  MET90       0.2287
     50  O         36.6740    8.9090   87.9630 O.2    90  MET90      -0.2864
     51  CB        39.9590    8.5110   87.4670 C.3    90  MET90       0.0413
     52  CG        40.9380    8.8200   86.3290 C.3    90  MET90       0.0598
     53  SD        40.1760    8.8130   84.7050 S.3    90  MET90      -0.1393
     54  CE        41.6050    9.1690   83.6810 C.3    90  MET90       0.0692
     55  N         39.5020   15.8850   75.5240 N.3   121  GLY121     -0.1210
     56  CA        40.8460   15.4840   75.8570 C.3   121  GLY121      0.1956
     57  C         41.0740   14.0350   76.1500 C.2   121  GLY121      0.2611
     58  O         42.1950   13.5200   76.0590 O.2   121  GLY121     -0.2717
     59  N         40.0020   13.2800   76.4880 N.am  122  PHE122     -0.1976
     60  CA        40.2110   11.8780   76.8090 C.3   122  PHE122      0.1639
     61  C         40.6990   11.1110   75.5930 C.2   122  PHE122      0.2290
     62  O         41.5040   10.1910   75.7800 O.2   122  PHE122     -0.2864
     63  CB        38.9160   11.2390   77.3240 C.3   122  PHE122      0.0560
     64  CG        38.6870   11.5740   78.8060 C.ar  122  PHE122     -0.0200
     65  CD1       37.8910   12.6590   79.1700 C.ar  122  PHE122     -0.0042
     66  CD2       39.2940   10.8200   79.8020 C.ar  122  PHE122     -0.0042
     67  CE1       37.7070   12.9950   80.4930 C.ar  122  PHE122     -0.0003
     68  CE2       39.0740   11.1700   81.1080 C.ar  122  PHE122     -0.0003
     69  CZ        38.2670   12.2150   81.4500 C.ar  122  PHE122     -0.0000
     70  N         41.3320    7.1720   75.3480 N.3   125  LEU125     -0.1245
     71  CA        41.0670    6.6570   76.7040 C.3   125  LEU125      0.1561
     72  C         39.5930    6.6980   77.0580 C.2   125  LEU125      0.2260
     73  O         39.1370    6.1550   78.0930 O.2   125  LEU125     -0.2867
     74  CB        41.8710    7.4700   77.6850 C.3   125  LEU125      0.0270
     75  CG        41.8870    7.0930   79.1510 C.3   125  LEU125      0.0019
     76  CD1       42.2640    5.6230   79.3140 C.3   125  LEU125      0.0001
     77  CD2       42.8490    7.9650   79.9390 C.3   125  LEU125      0.0001
     78  N         45.8470    7.6060   81.8950 N.3   211  GLY211     -0.1225
     79  CA        45.6100    9.0540   81.7920 C.3   211  GLY211      0.1811
     80  C         46.8790    9.8520   81.7300 C.2   211  GLY211      0.2280
     81  O         46.9400   10.8140   80.9340 O.2   211  GLY211     -0.2866
     82  N         48.1030    9.5220   78.2370 N.3   214  ARG214     -0.1231
     83  CA        47.3010   10.3850   77.3590 C.3   214  ARG214      0.1694
     84  C         47.7350   11.8390   77.4920 C.2   214  ARG214      0.2591
     85  O         47.7250   12.5670   76.4910 O.2   214  ARG214     -0.2718
     86  CB        45.8140   10.2370   77.6570 C.3   214  ARG214      0.0321
     87  CG        44.8960   11.2370   76.9310 C.3   214  ARG214      0.0489
     88  CD        45.0510   11.0940   75.4390 C.3   214  ARG214      0.2205
     89  NE        44.2330   12.0380   74.7080 N.pl3 214  ARG214     -0.0865
     90  CZ        44.5410   12.6670   73.5700 C.cat 214  ARG214      0.5346
     91  NH1       45.7300   12.4930   72.9790 N.pl3 214  ARG214      0.1354
     92  NH2       43.6670   13.4960   73.0100 N.pl3 214  ARG214      0.1354
     93  N         48.1100   12.2750   78.7090 N.am  215  ALA215     -0.1980
     94  CA        48.5720   13.6580   78.9060 C.3   215  ALA215      0.1597
     95  C         49.7900   13.9080   78.0020 C.2   215  ALA215      0.2287
     96  O         49.8890   14.9750   77.4180 O.2   215  ALA215     -0.2864
     97  CB        48.8180   13.9730   80.3610 C.3   215  ALA215      0.0319
     98  N         48.4720   14.4240   74.4470 N.3   218  LEU218     -0.1245
     99  CA        47.5780   15.5770   74.3830 C.3   218  LEU218      0.1561
    100  C         48.4100   16.8360   74.3000 C.2   218  LEU218      0.2260
    101  O         48.0350   17.8220   73.6570 O.2   218  LEU218     -0.2867
    102  CB        46.6110   15.4530   75.5560 C.3   218  LEU218      0.0270
    103  CG        45.5290   16.4870   75.7350 C.3   218  LEU218      0.0019
    104  CD1       44.6020   16.5810   74.5540 C.3   218  LEU218      0.0001
    105  CD2       44.7670   16.1490   77.0080 C.3   218  LEU218      0.0001
    106  N         49.9450   22.9300   79.4340 N.3   226  MET226     -0.1245
    107  CA        48.8250   22.6060   80.2780 C.3   226  MET226      0.1570
    108  C         48.8200   23.5190   81.4890 C.2   226  MET226      0.2261
    109  O         49.8360   24.0730   81.8710 O.2   226  MET226     -0.2867
    110  CB        48.9130   21.1370   80.7340 C.3   226  MET226      0.0387
    111  CG        48.4160   20.1980   79.6820 C.3   226  MET226      0.0595
    112  SD        48.3830   18.4860   80.1210 S.3   226  MET226     -0.1393
    113  CE        47.9000   17.7570   78.5900 C.3   226  MET226      0.0692
    114  N         47.7550   21.1400   86.8340 N.3   230  ILE230     -0.1245
    115  CA        47.7650   19.8750   86.0860 C.3   230  ILE230      0.1561
    116  C         49.1930   19.4030   85.9210 C.2   230  ILE230      0.2260
    117  O         49.5330   18.2420   86.1340 O.2   230  ILE230     -0.2867
    118  CB        46.9990   20.0190   84.7660 C.3   230  ILE230      0.0252
    119  CG1       45.5060   20.1360   85.0380 C.3   230  ILE230      0.0019
    120  CG2       47.3040   18.8650   83.8250 C.3   230  ILE230      0.0019
    121  CD1       44.6120   20.5350   83.8470 C.3   230  ILE230      0.0001
    122  N         50.4800   17.8670   89.0560 N.3   233  MET233     -0.1230
    123  CA        49.9390   16.5380   89.2360 C.3   233  MET233      0.1702
    124  C         50.6780   15.4840   88.4190 C.2   233  MET233      0.2592
    125  O         50.8940   14.3280   88.8470 O.2   233  MET233     -0.2718
    126  CB        48.4480   16.5900   88.8770 C.3   233  MET233      0.0401
    127  CG        47.7880   15.2440   88.8520 C.3   233  MET233      0.0596
    128  SD        46.0350   15.3530   88.5030 S.3   233  MET233     -0.1393
    129  CE        46.0560   15.6390   86.7270 C.3   233  MET233      0.0692
    130  N         51.0710   15.8670   87.1990 N.am  234  LEU234     -0.1980
    131  CA        51.6980   14.9450   86.2710 C.3   234  LEU234      0.1596
    132  C         53.1430   14.6730   86.5500 C.2   234  LEU234      0.2287
    133  O         53.6980   13.6540   86.1040 O.2   234  LEU234     -0.2864
    134  CB        51.5100   15.4790   84.8320 C.3   234  LEU234      0.0297
    135  CG        50.0490   15.4980   84.3430 C.3   234  LEU234      0.0022
    136  CD1       49.9580   16.1890   83.0000 C.3   234  LEU234      0.0001
    137  CD2       49.4980   14.0860   84.2450 C.3   234  LEU234      0.0001
@<TRIPOS>BOND
     1    91    90    1
     2    92    90    1
     3    90    89    2
     4   101   100    2
     5   100    99    1
     6    99    98    1
     7    99   102    1
     8   104   103    1
     9    89    88    1
    10     5     6    1
    11     5     2    1
    12     1     2    1
    13    70    71    1
    14    88    87    1
    15    55    56    1
    16   102   103    1
    17    61    62    2
    18    61    60    1
    19   103   105    1
    20     7     6   ar
    21     7     9   ar
    22    56    57    1
    23     6     8   ar
    24    58    57    2
    25     2     3    1
    26    57    59   am
    27    59    60    1
    28    85    84    2
    29     9    10   ar
    30    71    72    1
    31    71    74    1
    32    60    63    1
    33    87    86    1
    34     8    10   ar
    35     8    11   ar
    36    72    73    2
    37     3     4    2
    38    63    64    1
    39    83    84    1
    40    83    86    1
    41    83    82    1
    42    10    12   ar
    43    96    95    2
    44    84    93   am
    45    11    13   ar
    46    74    75    1
    47    95    94    1
    48    12    14   ar
    49   113   112    1
    50    13    14   ar
    51    93    94    1
    52    64    65   ar
    53    64    66   ar
    54    94    97    1
    55    75    76    1
    56    75    77    1
    57    65    67   ar
    58   106   107    1
    59    19    20    1
    60    19    16    1
    61   111   112    1
    62   111   110    1
    63    66    68   ar
    64    15    16    1
    65    22    20   ar
    66    22    24   ar
    67    20    21   ar
    68   107   110    1
    69   107   108    1
    70    67    69   ar
    71    24    25   ar
    72    16    17    1
    73    21    23   ar
    74    81    80    2
    75    68    69   ar
    76    25    23   ar
    77   108   109    2
    78    17    18    2
    79    80    79    1
    80    79    78    1
    81   136   135    1
    82    54    53    1
    83   120   118    1
    84   121   119    1
    85   137   135    1
    86   135   134    1
    87    53    52    1
    88   118   119    1
    89   118   115    1
    90   134   131    1
    91    30    27    1
    92    38    36    1
    93    26    27    1
    94   116   115    1
    95   116   117    2
    96    37    36    1
    97   115   114    1
    98   133   132    2
    99    27    28    1
   100   131   132    1
   101   131   130    1
   102    52    51    1
   103    36    35    1
   104   129   128    1
   105   130   124   am
   106    28    29    2
   107    51    48    1
   108    48    47    1
   109    48    49    1
   110    35    32    1
   111    50    49    2
   112    45    44    1
   113   124   125    2
   114   124   123    1
   115    47    41   am
   116   128   127    1
   117    42    41    2
   118    43    44    1
   119    43    40    1
   120    34    33    2
   121    41    40    1
   122   127   126    1
   123   126   123    1
   124    32    33    1
   125    32    31    1
   126   122   123    1
   127    44    46    1
   128    40    39    1
