@<TRIPOS>MOLECULE
tmp/1fd7F00.pdb
 116 114 0 0 0
SMALL
GASTEIGER

@<TRIPOS>ATOM
      1  N         33.7750  121.4380   28.3210 N.3    11  GLU11      -0.1231
      2  CA        34.0980  120.0100   28.2550 C.3    11  GLU11       0.1699
      3  C         34.9520  119.6590   27.0440 C.2    11  GLU11       0.2592
      4  O         35.4000  118.5050   26.9080 O.2    11  GLU11      -0.2718
      5  CB        32.7940  119.2080   28.1820 C.3    11  GLU11       0.0402
      6  CG        31.9290  119.2280   29.4350 C.3    11  GLU11       0.1161
      7  CD        30.6570  118.4160   29.2200 C.2    11  GLU11       0.3649
      8  OE1       29.9600  118.5680   28.2090 O.co2  11  GLU11      -0.2457
      9  OE2       30.3740  117.5800   30.0980 O.co2  11  GLU11      -0.2457
     10  N         35.0810  120.5930   26.1090 N.am   12  TYR12      -0.1962
     11  CA        35.8060  120.3960   24.8860 C.3    12  TYR12       0.1771
     12  C         37.1030  121.2120   24.7710 C.2    12  TYR12       0.2619
     13  O         37.1070  122.3580   25.2120 O.2    12  TYR12      -0.2715
     14  CB        34.9310  120.8130   23.6580 C.3    12  TYR12       0.0574
     15  CG        33.7380  119.8990   23.6140 C.ar   12  TYR12      -0.0198
     16  CD1       32.5980  120.1610   24.3570 C.ar   12  TYR12      -0.0009
     17  CD2       33.7690  118.7410   22.8190 C.ar   12  TYR12      -0.0009
     18  CE1       31.5200  119.2770   24.3350 C.ar   12  TYR12       0.0417
     19  CE2       32.6950  117.8820   22.7870 C.ar   12  TYR12       0.0417
     20  CZ        31.5860  118.1580   23.5500 C.ar   12  TYR12       0.1957
     21  OH        30.5060  117.2950   23.4900 O.3    12  TYR12      -0.2866
     22  N         38.0880  120.5850   24.1330 N.am   13  ARG13      -0.1963
     23  CA        39.3530  121.2860   23.8940 C.3    13  ARG13       0.1729
     24  C         39.2260  122.0440   22.5770 C.2    13  ARG13       0.2616
     25  O         38.3850  121.7210   21.7310 O.2    13  ARG13      -0.2715
     26  CB        40.5210  120.3310   23.7600 C.3    13  ARG13       0.0348
     27  CG        40.7720  119.3230   24.8710 C.3    13  ARG13       0.0492
     28  CD        41.6990  118.2620   24.2740 C.3    13  ARG13       0.2205
     29  NE        42.2190  117.3190   25.2420 N.pl3  13  ARG13      -0.0865
     30  CZ        43.4900  116.9220   25.2680 C.cat  13  ARG13       0.5346
     31  NH1       44.3410  117.4450   24.4000 N.pl3  13  ARG13       0.1354
     32  NH2       43.9150  116.0590   26.1670 N.pl3  13  ARG13       0.1354
     33  N         40.0470  123.0750   22.3680 N.am   14  ASN14      -0.1972
     34  CA        40.0000  123.9130   21.1860 C.3    14  ASN14       0.1688
     35  C         38.6690  124.6550   21.0450 C.2    14  ASN14       0.2292
     36  O         38.2020  124.8510   19.9050 O.2    14  ASN14      -0.2864
     37  CB        40.2440  123.1490   19.8710 C.3    14  ASN14       0.1181
     38  CG        41.5200  122.3290   19.8900 C.2    14  ASN14       0.2629
     39  OD1       41.5350  121.1070   19.7420 O.2    14  ASN14      -0.2716
     40  ND2       42.5880  123.0590   20.0530 N.am   14  ASN14      -0.0877
     41  N         30.4040  123.2950    9.8690 N.3    51  GLU51      -0.1245
     42  CA        31.3140  122.6210    8.9610 C.3    51  GLU51       0.1567
     43  C         30.6380  121.5940    8.0600 C.2    51  GLU51       0.2260
     44  O         29.6200  121.0450    8.4850 O.2    51  GLU51      -0.2867
     45  CB        32.3170  121.8390    9.8350 C.3    51  GLU51       0.0388
     46  CG        33.3990  122.7580   10.4120 C.3    51  GLU51       0.1160
     47  CD        34.3430  121.8940   11.2460 C.2    51  GLU51       0.3649
     48  OE1       34.1410  121.7310   12.4640 O.co2  51  GLU51      -0.2457
     49  OE2       35.3070  121.3740   10.6760 O.co2  51  GLU51      -0.2457
     50  N         35.7860  113.8680   11.0900 N.3    56  GLN56      -0.1231
     51  CA        35.8630  114.3250   12.4600 C.3    56  GLN56       0.1698
     52  C         34.5140  114.1330   13.1580 C.2    56  GLN56       0.2592
     53  O         34.5330  114.1910   14.3990 O.2    56  GLN56      -0.2718
     54  CB        36.2910  115.7890   12.5230 C.3    56  GLN56       0.0381
     55  CG        35.2820  116.8390   12.1260 C.3    56  GLN56       0.0905
     56  CD        35.3360  117.2080   10.6690 C.2    56  GLN56       0.2608
     57  OE1       35.2370  118.3680   10.2560 O.2    56  GLN56      -0.2717
     58  NE2       35.5040  116.2030    9.8300 N.am   56  GLN56      -0.0878
     59  N         33.4040  113.9870   12.4200 N.am   57  HIS57      -0.1962
     60  CA        32.1290  113.8390   13.1240 C.3    57  HIS57       0.1787
     61  C         31.7790  112.3770   13.3900 C.2    57  HIS57       0.2620
     62  O         32.1490  111.5330   12.5710 O.2    57  HIS57      -0.2715
     63  CB        31.0040  114.5050   12.3370 C.3    57  HIS57       0.0785
     64  CG        31.2320  115.9520   12.0340 C.ar   57  HIS57       0.0821
     65  ND1       31.4510  116.4420   10.7650 N.ar   57  HIS57      -0.2267
     66  CD2       31.2250  117.0220   12.8680 C.ar   57  HIS57       0.1154
     67  CE1       31.6430  117.7450   10.8490 C.ar   57  HIS57       0.1986
     68  NE2       31.4970  118.1100   12.0910 N.ar   57  HIS57      -0.2212
     69  N         31.0630  112.0940   14.4610 N.am   58  ILE58      -0.1977
     70  CA        30.6110  110.7100   14.7450 C.3    58  ILE58       0.1596
     71  C         29.1820  110.6040   14.2750 C.2    58  ILE58       0.2287
     72  O         28.5540  111.6450   13.9770 O.2    58  ILE58      -0.2864
     73  CB        30.7840  110.3750   16.2330 C.3    58  ILE58       0.0276
     74  CG1       30.0540  111.3770   17.1270 C.3    58  ILE58       0.0022
     75  CG2       32.2910  110.3500   16.5170 C.3    58  ILE58       0.0022
     76  CD1       30.1770  111.1350   18.6190 C.3    58  ILE58       0.0001
     77  N         26.2110  112.8820   15.5460 N.3    61  GLN61      -0.1245
     78  CA        26.2440  114.2730   15.1540 C.3    61  GLN61       0.1566
     79  C         25.5640  114.5000   13.8210 C.2    61  GLN61       0.2260
     80  O         25.3150  115.6840   13.4990 O.2    61  GLN61      -0.2867
     81  CB        27.7370  114.6880   15.0440 C.3    61  GLN61       0.0367
     82  CG        28.3480  115.0700   16.3970 C.3    61  GLN61       0.0905
     83  CD        29.7990  115.4890   16.1630 C.2    61  GLN61       0.2608
     84  OE1       30.6290  114.6310   15.8650 O.2    61  GLN61      -0.2717
     85  NE2       30.0920  116.7700   16.2750 N.am   61  GLN61      -0.0878
     86  N         34.5690  125.9010   17.8700 N.3    88  TRP88      -0.1241
     87  CA        35.9190  125.3340   17.8000 C.3    88  TRP88       0.1605
     88  C         36.8030  126.3800   17.1230 C.2    88  TRP88       0.2264
     89  O         36.4410  126.8440   16.0340 O.2    88  TRP88      -0.2867
     90  CB        35.9680  124.0430   17.0010 C.3    88  TRP88       0.0550
     91  CG        35.3610  122.8890   17.7620 C.ar   88  TRP88       0.0003
     92  CD1       36.0010  122.2280   18.7930 C.ar   88  TRP88       0.0946
     93  CD2       34.1110  122.2350   17.5720 C.ar   88  TRP88       0.0152
     94  NE1       35.1850  121.2240   19.2700 N.ar   88  TRP88      -0.2442
     95  CE2       34.0180  121.2070   18.5130 C.ar   88  TRP88       0.0810
     96  CE3       33.0420  122.4390   16.6870 C.ar   88  TRP88       0.0012
     97  CZ2       32.8920  120.3880   18.6240 C.ar   88  TRP88       0.0191
     98  CZ3       31.9270  121.6100   16.7520 C.ar   88  TRP88       0.0001
     99  CH2       31.8690  120.6050   17.7440 C.ar   88  TRP88       0.0015
    100  N         39.9610  125.8480   16.1560 N.3    90  ASN90      -0.1225
    101  CA        41.0210  125.1830   15.3970 C.3    90  ASN90       0.1785
    102  C         40.5580  125.0540   13.9520 C.2    90  ASN90       0.2597
    103  O         40.9750  124.1790   13.2020 O.2    90  ASN90      -0.2718
    104  CB        41.4500  123.8090   15.8940 C.3    90  ASN90       0.1169
    105  CG        40.3960  122.7290   15.8790 C.2    90  ASN90       0.2627
    106  OD1       40.6620  121.5180   15.8810 O.2    90  ASN90      -0.2716
    107  ND2       39.1350  123.1460   15.8580 N.am   90  ASN90      -0.0877
    108  N         39.5700  125.8460   13.5320 N.am   91  LYS91      -0.1980
    109  CA        39.0130  125.8720   12.2130 C.3    91  LYS91       0.1596
    110  C         38.8620  127.3410   11.8260 C.2    91  LYS91       0.2287
    111  O         38.6250  128.1480   12.7370 O.2    91  LYS91      -0.2864
    112  CB        37.6280  125.2060   12.1100 C.3    91  LYS91       0.0298
    113  CG        37.6600  123.7040   12.4420 C.3    91  LYS91       0.0038
    114  CD        38.4440  122.9560   11.3510 C.3    91  LYS91       0.0206
    115  CE        38.8040  121.5400   11.6790 C.3    91  LYS91       0.1093
    116  NZ        37.6690  120.6730   12.1380 N.3    91  LYS91      -0.1314
@<TRIPOS>BOND
     1    43    44    2
     2    43    42    1
     3    42    45    1
     4    42    41    1
     5    58    56   am
     6    45    46    1
     7    57    56    2
     8    46    47    1
     9    56    55    1
    10    49    47   ar
    11    65    67   ar
    12    65    64   ar
    13    67    68   ar
    14    50    51    1
    15    47    48   ar
    16   114   115    1
    17   114   113    1
    18   115   116    1
    19   110   109    1
    20   110   111    2
    21    64    63    1
    22    64    66   ar
    23    68    66   ar
    24   112   109    1
    25   112   113    1
    26    55    54    1
    27   109   108    1
    28    63    60    1
    29    59    60    1
    30    59    52   am
    31    51    54    1
    32    51    52    1
    33    62    61    2
    34    60    61    1
    35    52    53    2
    36   103   102    2
    37    61    69   am
    38    80    79    2
    39   108   102   am
    40    79    78    1
    41   102   101    1
    42    72    71    2
    43    71    70    1
    44    69    70    1
    45    70    73    1
    46    81    78    1
    47    81    82    1
    48    78    77    1
    49   101   104    1
    50   101   100    1
    51   107   105   am
    52    84    83    2
    53   105   106    2
    54   105   104    1
    55    89    88    2
    56    83    85   am
    57    83    82    1
    58    73    75    1
    59    73    74    1
    60    96    98   ar
    61    96    93   ar
    62    98    99   ar
    63    90    91    1
    64    90    87    1
    65    88    87    1
    66    74    76    1
    67    93    91   ar
    68    93    95   ar
    69    99    97   ar
    70    91    92   ar
    71    87    86    1
    72    95    97   ar
    73    95    94   ar
    74    92    94   ar
    75    39    38    2
    76    37    38    1
    77    37    34    1
    78    38    40   am
    79    36    35    2
    80    35    34    1
    81    34    33    1
    82    25    24    2
    83    33    24   am
    84    24    23    1
    85    19    17   ar
    86    19    20   ar
    87    17    15   ar
    88    21    20    1
    89    20    18   ar
    90    15    14    1
    91    15    16   ar
    92    14    11    1
    93    26    23    1
    94    26    27    1
    95    23    22    1
    96    22    12   am
    97    28    27    1
    98    28    29    1
    99    18    16   ar
   100    31    30    1
   101    12    11    1
   102    12    13    2
   103    11    10    1
   104    29    30    2
   105    30    32    1
   106    10     3   am
   107     4     3    2
   108     3     2    1
   109     5     2    1
   110     5     6    1
   111     8     7   ar
   112     2     1    1
   113     7     6    1
   114     7     9   ar
