@<TRIPOS>MOLECULE
tmp/1fdjB00.pdb
 165 153 0 0 0
SMALL
GASTEIGER

@<TRIPOS>ATOM
      1  N        116.5510   23.3360   -9.8570 N.3    31  ALA31      -0.1245
      2  CA       116.3880   22.3330   -8.8170 C.3    31  ALA31       0.1562
      3  C        115.0930   22.6490   -8.0790 C.2    31  ALA31       0.2260
      4  O        115.0780   23.4230   -7.1180 O.2    31  ALA31      -0.2867
      5  CB       117.5910   22.3470   -7.8550 C.3    31  ALA31       0.0290
      6  N        113.1520   20.1490   -6.8610 N.3    33  ASP33      -0.1225
      7  CA       112.8330   18.8780   -6.2290 C.3    33  ASP33       0.1805
      8  C        112.7070   18.9330   -4.7100 C.2    33  ASP33       0.2598
      9  O        113.1200   18.0060   -4.0130 O.2    33  ASP33      -0.2718
     10  CB       113.8470   17.8090   -6.6570 C.3    33  ASP33       0.1424
     11  CG       115.2770   18.1560   -6.2740 C.2    33  ASP33       0.3668
     12  OD1      115.7580   19.2590   -6.6110 O.co2  33  ASP33      -0.2456
     13  OD2      115.9260   17.3110   -5.6290 O.co2  33  ASP33      -0.2456
     14  N        112.1240   20.0100   -4.1970 N.am   34  GLU34      -0.1965
     15  CA       111.9280   20.1580   -2.7590 C.3    34  GLU34       0.1733
     16  C        110.8610   19.1590   -2.3150 C.2    34  GLU34       0.2617
     17  O        109.8330   19.0100   -2.9790 O.2    34  GLU34      -0.2715
     18  CB       111.4540   21.5720   -2.4010 C.3    34  GLU34       0.0429
     19  CG       112.4260   22.6970   -2.7230 C.3    34  GLU34       0.1163
     20  CD       112.2990   23.2220   -4.1440 C.2    34  GLU34       0.3649
     21  OE1      113.0970   24.0990   -4.5250 O.co2  34  GLU34      -0.2457
     22  OE2      111.3970   22.7800   -4.8850 O.co2  34  GLU34      -0.2457
     23  N        111.1110   18.4650   -1.2070 N.am   35  SER35      -0.1950
     24  CA       110.1520   17.4950   -0.6850 C.3    35  SER35       0.1924
     25  C        109.0410   18.3150   -0.0410 C.2    35  SER35       0.2314
     26  O        109.2470   19.4930    0.2680 O.2    35  SER35      -0.2863
     27  CB       110.8050   16.5960    0.3630 C.3    35  SER35       0.2116
     28  OG       111.1930   17.3470    1.5030 O.3    35  SER35      -0.2180
     29  N        110.2310   20.0410    2.9440 N.3    38  THR38      -0.1218
     30  CA       111.1710   21.1130    2.6360 C.3    38  THR38       0.1862
     31  C        110.4150   22.2700    1.9600 C.2    38  THR38       0.2287
     32  O        110.7420   23.4460    2.1480 O.2    38  THR38      -0.2866
     33  CB       112.3000   20.5880    1.7430 C.3    38  THR38       0.1770
     34  OG1      113.1840   19.7730    2.5060 O.3    38  THR38      -0.2211
     35  CG2      113.1430   21.7070    1.1260 C.3    38  THR38       0.0375
     36  N        109.3470   26.7950    2.8380 N.3    42  ARG42      -0.1245
     37  CA       109.4020   27.9300    1.9240 C.3    42  ARG42       0.1563
     38  C        108.0690   28.6900    1.9500 C.2    42  ARG42       0.2260
     39  O        108.0530   29.9090    2.1180 O.2    42  ARG42      -0.2867
     40  CB       109.6770   27.4540    0.4900 C.3    42  ARG42       0.0307
     41  CG       110.9150   26.5790    0.3070 C.3    42  ARG42       0.0489
     42  CD       112.2080   27.3320    0.5730 C.3    42  ARG42       0.2205
     43  NE       113.3750   26.5100    0.2540 N.pl3  42  ARG42      -0.0865
     44  CZ       114.0270   25.7390    1.1210 C.cat  42  ARG42       0.5346
     45  NH1      113.6520   25.6720    2.3940 N.pl3  42  ARG42       0.1354
     46  NH2      115.0540   25.0090    0.6990 N.pl3  42  ARG42       0.1354
     47  N        114.4260   13.3030   -8.5710 N.3   107  LYS107     -0.1245
     48  CA       115.1940   13.0780   -7.3550 C.3   107  LYS107      0.1561
     49  C        114.9860   11.6210   -6.9400 C.2   107  LYS107      0.2260
     50  O        113.8610   11.2010   -6.6900 O.2   107  LYS107     -0.2867
     51  CB       114.7060   14.0290   -6.2690 C.3   107  LYS107      0.0271
     52  CG       115.2180   13.7700   -4.8680 C.3   107  LYS107      0.0035
     53  CD       114.7360   14.8870   -3.9760 C.3   107  LYS107      0.0206
     54  CE       114.8690   14.5550   -2.5160 C.3   107  LYS107      0.1093
     55  NZ       114.4440   15.7250   -1.7020 N.3   107  LYS107     -0.1314
     56  N        117.0520    9.8090   -4.3350 N.3   109  ASP109     -0.1239
     57  CA       117.4300    9.3690   -2.9990 C.3   109  ASP109      0.1674
     58  C        116.2900    9.5100   -2.0160 C.2   109  ASP109      0.2266
     59  O        115.4300   10.3830   -2.1640 O.2   109  ASP109     -0.2867
     60  CB       118.6660   10.1020   -2.4830 C.3   109  ASP109      0.1410
     61  CG       118.4300   11.5710   -2.2890 C.2   109  ASP109      0.3668
     62  OD1      118.6660   12.3260   -3.2430 O.co2 109  ASP109     -0.2456
     63  OD2      118.0350   11.9720   -1.1790 O.co2 109  ASP109     -0.2456
     64  N        118.9300   12.4090   -9.7290 N.3   146  LYS146     -0.1245
     65  CA       119.7860   13.1490   -8.8120 C.3   146  LYS146      0.1561
     66  C        119.8170   12.4320   -7.4650 C.2   146  LYS146      0.2260
     67  O        118.7770   11.9940   -6.9530 O.2   146  LYS146     -0.2867
     68  CB       119.2870   14.5860   -8.6350 C.3   146  LYS146      0.0271
     69  CG       120.2910   15.4940   -7.9340 C.3   146  LYS146      0.0035
     70  CD       119.6110   16.6210   -7.1820 C.3   146  LYS146      0.0206
     71  CE       118.5690   16.0900   -6.2090 C.3   146  LYS146      0.1093
     72  NZ       119.0350   15.7530   -4.8390 N.3   146  LYS146     -0.1314
     73  N        121.6740   12.9560   -3.6440 N.3   148  ARG148     -0.1245
     74  CA       122.4530   13.8280   -2.7760 C.3   148  ARG148      0.1563
     75  C        123.0530   13.0480   -1.6100 C.2   148  ARG148      0.2260
     76  O        122.3470   12.2910   -0.9350 O.2   148  ARG148     -0.2867
     77  CB       121.5670   14.9610   -2.2520 C.3   148  ARG148      0.0307
     78  CG       122.2490   15.9460   -1.2960 C.3   148  ARG148      0.0489
     79  CD       121.2500   17.0000   -0.8370 C.3   148  ARG148      0.2205
     80  NE       121.8030   18.0030    0.0680 N.pl3 148  ARG148     -0.0865
     81  CZ       121.5270   18.0690    1.3710 C.cat 148  ARG148      0.5346
     82  NH1      120.7080   17.1970    1.9290 N.pl3 148  ARG148      0.1354
     83  NH2      122.0960   19.0030    2.1270 N.pl3 148  ARG148      0.1354
     84  N        125.8880   14.0120   -6.7140 N.3   187  GLU187     -0.1245
     85  CA       125.9860   15.1730   -5.8410 C.3   187  GLU187      0.1567
     86  C        126.5830   14.8760   -4.4670 C.2   187  GLU187      0.2260
     87  O        125.8750   14.4580   -3.5520 O.2   187  GLU187     -0.2867
     88  CB       124.6100   15.8240   -5.6710 C.3   187  GLU187      0.0388
     89  CG       124.5830   16.9470   -4.6350 C.3   187  GLU187      0.1160
     90  CD       123.2160   17.5890   -4.4670 C.2   187  GLU187      0.3649
     91  OE1      123.1660   18.7970   -4.1570 O.co2 187  GLU187     -0.2457
     92  OE2      122.1900   16.8990   -4.6380 O.co2 187  GLU187     -0.2457
     93  N        127.7490   16.4340   -1.4960 N.3   189  GLU189     -0.1245
     94  CA       127.7770   17.7180   -0.8370 C.3   189  GLU189      0.1567
     95  C        128.4640   17.8290    0.5090 C.2   189  GLU189      0.2260
     96  O        128.1300   17.1170    1.4520 O.2   189  GLU189     -0.2867
     97  CB       126.3750   18.3120   -0.7350 C.3   189  GLU189      0.0388
     98  CG       126.4160   19.7530   -0.2790 C.3   189  GLU189      0.1160
     99  CD       125.1110   20.2700    0.2560 C.2   189  GLU189      0.3649
    100  OE1      125.1110   21.3710    0.8370 O.co2 189  GLU189     -0.2457
    101  OE2      124.0830   19.5900    0.1030 O.co2 189  GLU189     -0.2457
    102  N        127.3860   17.5620   -9.4420 N.3   229  LYS229     -0.1245
    103  CA       126.7630   18.6830   -8.7370 C.3   229  LYS229      0.1561
    104  C        127.4300   18.8050   -7.3750 C.2   229  LYS229      0.2260
    105  O        126.9010   18.3570   -6.3600 O.2   229  LYS229     -0.2867
    106  CB       125.2590   18.4510   -8.5790 C.3   229  LYS229      0.0271
    107  CG       124.5410   19.4470   -7.6710 C.3   229  LYS229      0.0035
    108  CD       123.1250   19.6800   -8.1630 C.3   229  LYS229      0.0206
    109  CE       122.0550   19.3640   -7.1380 C.3   229  LYS229      0.1093
    110  NZ       121.3850   20.5750   -6.5970 N.3   229  LYS229     -0.1314
    111  N        125.6750   23.5240   -6.8750 N.3   270  LEU270     -0.1231
    112  CA       124.5000   23.6350   -6.0260 C.3   270  LEU270      0.1693
    113  C        124.6940   24.9580   -5.2880 C.2   270  LEU270      0.2593
    114  O        125.8330   25.3430   -4.9930 O.2   270  LEU270     -0.2718
    115  CB       124.4440   22.4440   -5.0590 C.3   270  LEU270      0.0284
    116  CG       125.6100   22.1720   -4.0980 C.3   270  LEU270      0.0019
    117  CD1      125.3600   22.8090   -2.7500 C.3   270  LEU270      0.0001
    118  CD2      125.7770   20.6800   -3.9370 C.3   270  LEU270      0.0001
    119  N        123.6070   25.6620   -5.0000 N.am  271  SER271     -0.1938
    120  CA       123.6660   26.9580   -4.3280 C.3   271  SER271      0.2055
    121  C        123.8750   26.9400   -2.8210 C.2   271  SER271      0.2644
    122  O        124.3330   27.9160   -2.2400 O.2   271  SER271     -0.2714
    123  CB       122.4440   27.8150   -4.6960 C.3   271  SER271      0.2130
    124  OG       121.2360   27.0620   -4.7690 O.3   271  SER271     -0.2179
    125  N        123.4970   25.8430   -2.1860 N.am  272  GLY272     -0.1939
    126  CA       123.6800   25.7040   -0.7500 C.3   272  GLY272      0.2014
    127  C        123.1940   26.8050    0.1770 C.2   272  GLY272      0.2639
    128  O        123.9020   27.1730    1.1150 O.2   272  GLY272     -0.2714
    129  N        121.9860   27.3050   -0.0480 N.am  273  GLY273     -0.1954
    130  CA       121.4540   28.3470    0.8140 C.3   273  GLY273      0.1869
    131  C        122.1660   29.6860    0.8000 C.2   273  GLY273      0.2309
    132  O        122.0550   30.4510    1.7660 O.2   273  GLY273     -0.2863
    133  N        122.8860   24.4020  -10.8760 N.3   300  SER300     -0.1202
    134  CA       121.7500   23.5270  -10.6000 C.3   300  SER300      0.2020
    135  C        121.2500   24.1590   -9.3140 C.2   300  SER300      0.2619
    136  O        121.5130   23.6700   -8.2180 O.2   300  SER300     -0.2717
    137  CB       122.2210   22.0930  -10.3500 C.3   300  SER300      0.2103
    138  OG       121.2080   21.3390   -9.6960 O.3   300  SER300     -0.2182
    139  N        120.5690   25.2870   -9.4650 N.am  301  TYR301     -0.1961
    140  CA       120.0830   26.0480   -8.3240 C.3   301  TYR301      0.1771
    141  C        118.6110   25.8680   -7.9860 C.2   301  TYR301      0.2620
    142  O        117.7730   25.6800   -8.8690 O.2   301  TYR301     -0.2715
    143  CB       120.3470   27.5410   -8.5380 C.3   301  TYR301      0.0574
    144  CG       121.8030   27.9470   -8.6630 C.ar  301  TYR301     -0.0198
    145  CD1      122.1470   29.1660   -9.2410 C.ar  301  TYR301     -0.0009
    146  CD2      122.8330   27.1310   -8.1840 C.ar  301  TYR301     -0.0009
    147  CE1      123.4720   29.5720   -9.3400 C.ar  301  TYR301      0.0417
    148  CE2      124.1660   27.5300   -8.2770 C.ar  301  TYR301      0.0417
    149  CZ       124.4720   28.7500   -8.8540 C.ar  301  TYR301      0.1957
    150  OH       125.7870   29.1590   -8.9490 O.3   301  TYR301     -0.2866
    151  N        118.3190   25.9580   -6.6970 N.am  302  GLY302     -0.1940
    152  CA       116.9580   25.8530   -6.2230 C.3   302  GLY302      0.2014
    153  C        116.5510   27.2150   -5.7030 C.2   302  GLY302      0.2638
    154  O        116.0260   28.0400   -6.4530 O.2   302  GLY302     -0.2714
    155  N        116.8750   27.4790   -4.4400 N.am  303  ARG303     -0.1977
    156  CA       116.5630   28.7380   -3.7780 C.3   303  ARG303      0.1597
    157  C        117.1520   29.9430   -4.5130 C.2   303  ARG303      0.2287
    158  O        116.4720   30.9580   -4.6900 O.2   303  ARG303     -0.2864
    159  CB       117.0690   28.6870   -2.3320 C.3   303  ARG303      0.0334
    160  CG       116.6050   29.8150   -1.4340 C.3   303  ARG303      0.0492
    161  CD       117.1800   29.6490   -0.0390 C.3   303  ARG303      0.2205
    162  NE       117.2910   30.9160    0.6710 N.pl3 303  ARG303     -0.0865
    163  CZ       117.0650   31.0690    1.9730 C.cat 303  ARG303      0.5346
    164  NH1      116.6940   30.0240    2.7070 N.pl3 303  ARG303      0.1354
    165  NH2      117.3470   32.2220    2.5690 N.pl3 303  ARG303      0.1354
@<TRIPOS>BOND
     1   133   134    1
     2   134   137    1
     3   134   135    1
     4   137   138    1
     5     1     2    1
     6    64    65    1
     7   139   135   am
     8   139   140    1
     9   102   103    1
    10   147   145   ar
    11   147   149   ar
    12   135   136    2
    13   145   144   ar
    14   150   149    1
    15   142   141    2
    16   149   148   ar
    17     2     3    1
    18     2     5    1
    19    65    68    1
    20    65    66    1
    21   103   106    1
    22   103   104    1
    23   144   143    1
    24   144   146   ar
    25    68    69    1
    26   106   107    1
    27    47    48    1
    28   143   140    1
    29   140   141    1
    30   148   146   ar
    31   108   107    1
    32   108   109    1
    33     3     4    2
    34   141   151   am
    35    69    70    1
    36    66    67    2
    37   104   105    2
    38    48    49    1
    39    48    51    1
    40    70    71    1
    41   109   110    1
    42    49    50    2
    43   111   112    1
    44     6     7    1
    45    84    85    1
    46   151   152    1
    47    10    11    1
    48    10     7    1
    49    12    11   ar
    50   154   153    2
    51    11    13   ar
    52    51    52    1
    53     7     8    1
    54   152   153    1
    55    71    72    1
    56   112   113    1
    57   112   115    1
    58    85    88    1
    59    85    86    1
    60   153   155   am
    61    88    89    1
    62   113   119   am
    63   113   114    2
    64   115   116    1
    65   119   120    1
    66    22    20   ar
    67    52    53    1
    68   124   123    1
    69     8    14   am
    70     8     9    2
    71   123   120    1
    72   158   157    2
    73    92    90   ar
    74    89    90    1
    75    21    20   ar
    76   157   156    1
    77    86    87    2
    78    90    91   ar
    79   155   156    1
    80    56    57    1
    81   120   121    1
    82    14    15    1
    83    20    19    1
    84   116   118    1
    85   116   117    1
    86    53    54    1
    87   156   159    1
    88    73    74    1
    89    62    61   ar
    90    57    60    1
    91    57    58    1
    92    17    16    2
    93   121   122    2
    94   121   125   am
    95    74    77    1
    96    74    75    1
    97    15    18    1
    98    15    16    1
    99    19    18    1
   100    54    55    1
   101    60    61    1
   102   159   160    1
   103    16    23   am
   104    61    63   ar
   105    77    78    1
   106   125   126    1
   107    59    58    2
   108    75    76    2
   109    93    94    1
   110   160   161    1
   111    78    79    1
   112    23    24    1
   113    94    97    1
   114    94    95    1
   115    79    80    1
   116   126   127    1
   117    97    98    1
   118    24    25    1
   119    24    27    1
   120    98    99    1
   121   129   127   am
   122   129   130    1
   123    25    26    2
   124   161   162    1
   125    80    81    2
   126   101    99   ar
   127   127   128    2
   128    43    42    1
   129    43    44    2
   130    99   100   ar
   131    41    40    1
   132    41    42    1
   133    27    28    1
   134    40    37    1
   135    95    96    2
   136   162   163    2
   137    46    44    1
   138   131   130    1
   139   131   132    2
   140    44    45    1
   141    35    33    1
   142    81    82    1
   143    81    83    1
   144    33    34    1
   145    33    30    1
   146    37    38    1
   147    37    36    1
   148    38    39    2
   149    31    32    2
   150    31    30    1
   151   163   165    1
   152   163   164    1
   153    30    29    1
