@<TRIPOS>MOLECULE
tmp/1fdjA00.pdb
 161 147 0 0 0
SMALL
GASTEIGER

@<TRIPOS>ATOM
      1  N        164.9340   10.1230  -23.1660 N.3    31  ALA31      -0.1245
      2  CA       165.1470    9.1590  -22.1000 C.3    31  ALA31       0.1562
      3  C        166.4450    8.4060  -22.3920 C.2    31  ALA31       0.2260
      4  O        166.4340    7.3420  -23.0160 O.2    31  ALA31      -0.2867
      5  CB       163.9640    8.1990  -22.0060 C.3    31  ALA31       0.0290
      6  N        168.4940    7.0240  -20.2080 N.3    33  ASP33      -0.1225
      7  CA       168.8170    6.4070  -18.9220 C.3    33  ASP33       0.1805
      8  C        169.0930    4.9010  -18.9300 C.2    33  ASP33       0.2598
      9  O        169.0480    4.2430  -17.8810 O.2    33  ASP33      -0.2718
     10  CB       167.7160    6.7360  -17.9020 C.3    33  ASP33       0.1424
     11  CG       166.3320    6.2230  -18.3260 C.2    33  ASP33       0.3668
     12  OD1      166.1210    5.8610  -19.5060 O.co2  33  ASP33      -0.2456
     13  OD2      165.4420    6.1840  -17.4580 O.co2  33  ASP33      -0.2456
     14  N        169.3840    4.3590  -20.1070 N.am   34  GLU34      -0.1965
     15  CA       169.6750    2.9370  -20.2530 C.3    34  GLU34       0.1733
     16  C        170.8390    2.5850  -19.3290 C.2    34  GLU34       0.2617
     17  O        171.8840    3.2260  -19.3750 O.2    34  GLU34      -0.2715
     18  CB       170.0690    2.6140  -21.6970 C.3    34  GLU34       0.0429
     19  CG       169.0850    3.0720  -22.7560 C.3    34  GLU34       0.1163
     20  CD       169.4010    4.4450  -23.3540 C.2    34  GLU34       0.3649
     21  OE1      169.8630    5.3530  -22.6350 O.co2  34  GLU34      -0.2457
     22  OE2      169.1820    4.6230  -24.5690 O.co2  34  GLU34      -0.2457
     23  N        170.6430    1.5930  -18.4720 N.am   35  SER35      -0.1950
     24  CA       171.6900    1.1610  -17.5480 C.3    35  SER35       0.1924
     25  C        172.8520    0.5310  -18.3220 C.2    35  SER35       0.2314
     26  O        172.7830    0.3770  -19.5440 O.2    35  SER35      -0.2863
     27  CB       171.1170    0.1620  -16.5340 C.3    35  SER35       0.2116
     28  OG       170.5870   -0.9840  -17.1860 O.3    35  SER35      -0.2180
     29  N        171.5160   -2.6400  -20.2380 N.3    38  THR38      -0.1218
     30  CA       170.6620   -2.2430  -21.3540 C.3    38  THR38       0.1862
     31  C        171.4600   -1.5820  -22.4740 C.2    38  THR38       0.2287
     32  O        171.2590   -1.8990  -23.6520 O.2    38  THR38      -0.2866
     33  CB       169.5500   -1.2920  -20.8810 C.3    38  THR38       0.1770
     34  OG1      168.8470   -1.8980  -19.7880 O.3    38  THR38      -0.2211
     35  CG2      168.5780   -1.0010  -22.0100 C.3    38  THR38       0.0375
     36  N        172.2380   -2.4010  -26.6870 N.3    42  ARG42      -0.1245
     37  CA       172.1970   -1.4110  -27.7600 C.3    42  ARG42       0.1563
     38  C        173.4980   -1.4850  -28.5550 C.2    42  ARG42       0.2260
     39  O        173.4940   -1.7250  -29.7670 O.2    42  ARG42      -0.2867
     40  CB       172.0460   -0.0010  -27.1800 C.3    42  ARG42       0.0307
     41  CG       170.8950    0.1940  -26.1840 C.3    42  ARG42       0.0489
     42  CD       169.5390    0.3120  -26.8630 C.3    42  ARG42       0.2205
     43  NE       168.7610    1.4290  -26.3260 N.pl3  42  ARG42      -0.0865
     44  CZ       167.7200    1.3070  -25.5060 C.cat  42  ARG42       0.5346
     45  NH1      167.3220    0.1120  -25.1000 N.pl3  42  ARG42       0.1354
     46  NH2      167.1230    2.3910  -25.0330 N.pl3  42  ARG42       0.1354
     47  N        167.1770    8.6420  -13.2620 N.3   107  LYS107     -0.1245
     48  CA       166.3910    7.4310  -13.0120 C.3   107  LYS107      0.1561
     49  C        166.5630    7.0980  -11.5380 C.2   107  LYS107      0.2260
     50  O        167.6900    6.9710  -11.0600 O.2   107  LYS107     -0.2867
     51  CB       166.8970    6.2560  -13.8570 C.3   107  LYS107      0.0271
     52  CG       166.2680    4.9120  -13.4650 C.3   107  LYS107      0.0035
     53  CD       166.9210    3.7230  -14.1610 C.3   107  LYS107      0.0206
     54  CE       166.4920    3.6180  -15.6090 C.3   107  LYS107      0.1093
     55  NZ       167.0910    2.4470  -16.3150 N.3   107  LYS107     -0.1314
     56  N        164.5260    4.4530   -9.7440 N.3   109  ASP109     -0.1239
     57  CA       164.1560    3.1300   -9.2840 C.3   109  ASP109      0.1674
     58  C        165.3110    2.1540   -9.4390 C.2   109  ASP109      0.2266
     59  O        166.2160    2.3810  -10.2410 O.2   109  ASP109     -0.2867
     60  CB       162.9170    2.6210  -10.0200 C.3   109  ASP109      0.1410
     61  CG       163.1900    2.3020  -11.4630 C.2   109  ASP109      0.3668
     62  OD1      163.5670    1.1510  -11.7500 O.co2 109  ASP109     -0.2456
     63  OD2      163.0480    3.2070  -12.3070 O.co2 109  ASP109     -0.2456
     64  N        162.6020    9.8500  -12.2080 N.3   146  LYS146     -0.1245
     65  CA       161.7980    8.9460  -13.0340 C.3   146  LYS146      0.1561
     66  C        161.7660    7.5640  -12.3970 C.2   146  LYS146      0.2260
     67  O        162.8130    6.9910  -12.0970 O.2   146  LYS146     -0.2867
     68  CB       162.3800    8.8750  -14.4460 C.3   146  LYS146      0.0271
     69  CG       161.7460    7.8610  -15.3730 C.3   146  LYS146      0.0035
     70  CD       162.6170    6.6380  -15.4960 C.3   146  LYS146      0.0206
     71  CE       162.2120    5.8150  -16.6830 C.3   146  LYS146      0.1093
     72  NZ       163.0590    4.6110  -16.8500 N.3   146  LYS146     -0.1314
     73  N        159.9120    3.7590  -12.8330 N.3   148  ARG148     -0.1245
     74  CA       159.1430    2.9070  -13.7290 C.3   148  ARG148      0.1563
     75  C        158.5260    1.6840  -13.0640 C.2   148  ARG148      0.2260
     76  O        159.2400    0.8420  -12.5290 O.2   148  ARG148     -0.2867
     77  CB       160.0260    2.4560  -14.8870 C.3   148  ARG148      0.0307
     78  CG       159.3690    1.4630  -15.8260 C.3   148  ARG148      0.0489
     79  CD       160.2960    1.1260  -16.9510 C.3   148  ARG148      0.2205
     80  NE       159.7180    0.1500  -17.8640 N.pl3 148  ARG148     -0.0865
     81  CZ       160.0330   -1.1360  -17.8880 C.cat 148  ARG148      0.5346
     82  NH1      160.9290   -1.6330  -17.0400 N.pl3 148  ARG148      0.1354
     83  NH2      159.4620   -1.9320  -18.7770 N.pl3 148  ARG148      0.1354
     84  N        155.7940    6.8150  -13.9890 N.3   187  GLU187     -0.1245
     85  CA       155.6970    5.9270  -15.1330 C.3   187  GLU187      0.1567
     86  C        155.0460    4.5850  -14.8360 C.2   187  GLU187      0.2260
     87  O        155.7140    3.6410  -14.4110 O.2   187  GLU187     -0.2867
     88  CB       157.0720    5.7030  -15.7620 C.3   187  GLU187      0.0388
     89  CG       157.0540    4.7670  -16.9880 C.3   187  GLU187      0.1160
     90  CD       158.4120    4.6380  -17.6520 C.2   187  GLU187      0.3649
     91  OE1      158.5350    3.8980  -18.6520 O.co2 187  GLU187     -0.2457
     92  OE2      159.3600    5.2870  -17.1800 O.co2 187  GLU187     -0.2457
     93  N        153.8600    1.7580  -16.4680 N.3   189  GLU189     -0.1245
     94  CA       153.7920    1.1100  -17.7730 C.3   189  GLU189      0.1567
     95  C        153.1040   -0.2370  -17.8040 C.2   189  GLU189      0.2260
     96  O        153.4380   -1.1310  -17.0380 O.2   189  GLU189     -0.2867
     97  CB       155.1710    0.9470  -18.4230 C.3   189  GLU189      0.0388
     98  CG       155.0820    0.1250  -19.7220 C.3   189  GLU189      0.1160
     99  CD       156.4010   -0.0710  -20.4500 C.2   189  GLU189      0.3649
    100  OE1      156.3650   -0.3910  -21.6520 O.co2 189  GLU189     -0.2457
    101  OE2      157.4720    0.0750  -19.8330 O.co2 189  GLU189     -0.2457
    102  N        154.0540    9.5120  -17.4090 N.3   229  LYS229     -0.1245
    103  CA       154.7270    8.8710  -18.5300 C.3   229  LYS229      0.1561
    104  C        154.1020    7.4970  -18.7040 C.2   229  LYS229      0.2260
    105  O        154.6320    6.4930  -18.2360 O.2   229  LYS229     -0.2867
    106  CB       156.2250    8.7620  -18.2520 C.3   229  LYS229      0.0271
    107  CG       157.0310    8.1630  -19.3840 C.3   229  LYS229      0.0035
    108  CD       158.5110    8.1990  -19.0650 C.3   229  LYS229      0.0206
    109  CE       159.3040    7.4640  -20.1140 C.3   229  LYS229      0.1093
    110  NZ       160.7550    7.5760  -19.8540 N.3   229  LYS229     -0.1314
    111  N        155.9570    6.9520  -23.4340 N.3   270  LEU270     -0.1231
    112  CA       157.1560    6.1440  -23.5400 C.3   270  LEU270      0.1693
    113  C        157.0330    5.4800  -24.9020 C.2   270  LEU270      0.2593
    114  O        155.9270    5.2300  -25.3850 O.2   270  LEU270     -0.2718
    115  CB       157.2070    5.1100  -22.4080 C.3   270  LEU270      0.0284
    116  CG       156.0010    4.1900  -22.1620 C.3   270  LEU270      0.0019
    117  CD1      156.1080    2.9040  -22.9720 C.3   270  LEU270      0.0001
    118  CD2      155.9100    3.8750  -20.6900 C.3   270  LEU270      0.0001
    119  N        158.1670    5.2150  -25.5380 N.am  271  SER271     -0.1938
    120  CA       158.1660    4.5980  -26.8570 C.3   271  SER271      0.2055
    121  C        157.8840    3.0980  -26.8460 C.2   271  SER271      0.2644
    122  O        157.5160    2.5280  -27.8610 O.2   271  SER271     -0.2714
    123  CB       159.4640    4.9340  -27.6000 C.3   271  SER271      0.2130
    124  OG       160.6100    4.8810  -26.7530 O.3   271  SER271     -0.2179
    125  N        158.0630    2.4760  -25.6840 N.am  272  GLY272     -0.1939
    126  CA       157.8020    1.0540  -25.5130 C.3   272  GLY272      0.2014
    127  C        158.2330    0.0780  -26.5900 C.2   272  GLY272      0.2639
    128  O        157.4900   -0.8610  -26.8920 O.2   272  GLY272     -0.2714
    129  N        159.4320    0.2610  -27.1380 N.am  273  GLY273     -0.1939
    130  CA       159.9190   -0.6320  -28.1730 C.3   273  GLY273      0.2014
    131  C        159.2510   -0.4370  -29.5200 C.2   273  GLY273      0.2638
    132  O        159.1340   -1.3760  -30.3050 O.2   273  GLY273     -0.2714
    133  N        158.7980    0.7850  -29.7740 N.am  274  MET274     -0.1976
    134  CA       158.1390    1.1540  -31.0200 C.3   274  MET274      0.1605
    135  C        159.1820    1.6310  -32.0200 C.2   274  MET274      0.2287
    136  O        160.2350    2.1380  -31.6310 O.2   274  MET274     -0.2864
    137  CB       157.1840    2.3180  -30.7660 C.3   274  MET274      0.0413
    138  CG       155.7160    2.0230  -30.9540 C.3   274  MET274      0.0598
    139  SD       154.7700    3.4790  -30.4860 S.3   274  MET274     -0.1393
    140  CE       154.4380    3.1110  -28.7910 C.3   274  MET274      0.0692
    141  N        158.6510   11.0520  -24.3430 N.3   300  SER300     -0.1217
    142  CA       159.7680   10.8120  -23.4360 C.3   300  SER300      0.1889
    143  C        160.3450    9.5310  -24.0060 C.2   300  SER300      0.2288
    144  O        160.2460    8.4560  -23.4120 O.2   300  SER300     -0.2866
    145  CB       159.2700   10.5930  -22.0060 C.3   300  SER300      0.2089
    146  OG       160.3520   10.5410  -21.0930 O.3   300  SER300     -0.2183
    147  N        163.1970    6.8810  -25.8810 N.3   302  GLY302     -0.1210
    148  CA       164.5460    6.3810  -25.7320 C.3   302  GLY302      0.1956
    149  C        165.0970    5.9050  -27.0620 C.2   302  GLY302      0.2611
    150  O        165.8970    6.5920  -27.6900 O.2   302  GLY302     -0.2717
    151  N        164.5930    4.7690  -27.5410 N.am  303  ARG303     -0.1979
    152  CA       165.0590    4.1900  -28.7950 C.3   303  ARG303      0.1597
    153  C        164.3430    4.7600  -30.0160 C.2   303  ARG303      0.2287
    154  O        164.7920    4.5720  -31.1450 O.2   303  ARG303     -0.2864
    155  CB       164.9250    2.6770  -28.7430 C.3   303  ARG303      0.0334
    156  CG       165.6510    1.9160  -29.8400 C.3   303  ARG303      0.0492
    157  CD       165.6230    0.4210  -29.5480 C.3   303  ARG303      0.2205
    158  NE       164.5760    0.0900  -28.5790 N.pl3 303  ARG303     -0.0865
    159  CZ       164.3150   -1.1280  -28.1250 C.cat 303  ARG303      0.5346
    160  NH1      165.0130   -2.1760  -28.5440 N.pl3 303  ARG303      0.1354
    161  NH2      163.3630   -1.2860  -27.2150 N.pl3 303  ARG303      0.1354
@<TRIPOS>BOND
     1   135   136    2
     2   135   134    1
     3   154   153    2
     4   134   137    1
     5   134   133    1
     6   138   137    1
     7   138   139    1
     8   139   140    1
     9   132   131    2
    10   153   152    1
    11   156   157    1
    12   156   155    1
    13   133   131   am
    14    39    38    2
    15   157   158    1
    16   131   130    1
    17   152   155    1
    18   152   151    1
    19   158   159    2
    20    38    37    1
    21   160   159    1
    22   130   129    1
    23   159   161    1
    24   122   121    2
    25    37    40    1
    26    37    36    1
    27   150   149    2
    28   123   120    1
    29   123   124    1
    30   151   149   am
    31    40    41    1
    32   129   127   am
    33   149   148    1
    34   128   127    2
    35    42    43    1
    36    42    41    1
    37   120   121    1
    38   120   119    1
    39   121   125   am
    40   127   126    1
    41    43    44    2
    42   147   148    1
    43   125   126    1
    44   119   113   am
    45    44    45    1
    46    44    46    1
    47   114   113    2
    48   113   112    1
    49    22    20   ar
    50   141   142    1
    51   143   142    1
    52   143   144    2
    53    32    31    2
    54   112   111    1
    55   112   115    1
    56   142   145    1
    57    20    19    1
    58    20    21   ar
    59     1     2    1
    60     4     3    2
    61   117   116    1
    62    19    18    1
    63    31    30    1
    64   115   116    1
    65     3     2    1
    66   116   118    1
    67     2     5    1
    68    35    33    1
    69   145   146    1
    70    18    15    1
    71   100    99   ar
    72    30    33    1
    73    30    29    1
    74    33    34    1
    75    99   101   ar
    76    99    98    1
    77    15    14    1
    78    15    16    1
    79     6     7    1
    80   109   110    1
    81   109   108    1
    82    14     8   am
    83    98    97    1
    84    26    25    2
    85    12    11   ar
    86   107   108    1
    87   107   106    1
    88    17    16    2
    89    16    23   am
    90     8     7    1
    91     8     9    2
    92     7    10    1
    93    83    81    1
    94   104   103    1
    95   104   105    2
    96    91    90   ar
    97   103   106    1
    98   103   102    1
    99    23    24    1
   100    97    94    1
   101    11    10    1
   102    11    13   ar
   103    25    24    1
   104    81    80    2
   105    81    82    1
   106    80    79    1
   107    95    94    1
   108    95    96    2
   109    94    93    1
   110    90    92   ar
   111    90    89    1
   112    24    27    1
   113    28    27    1
   114    89    88    1
   115    79    78    1
   116    72    71    1
   117    71    70    1
   118    55    54    1
   119    78    77    1
   120    88    85    1
   121    54    53    1
   122    70    69    1
   123    69    68    1
   124    85    86    1
   125    85    84    1
   126    77    74    1
   127    86    87    2
   128    68    65    1
   129    53    52    1
   130    51    52    1
   131    51    48    1
   132    74    75    1
   133    74    73    1
   134    47    48    1
   135    75    76    2
   136    65    66    1
   137    65    64    1
   138    48    49    1
   139    66    67    2
   140    63    61   ar
   141    62    61   ar
   142    49    50    2
   143    61    60    1
   144    59    58    2
   145    60    57    1
   146    56    57    1
   147    58    57    1
