@<TRIPOS>MOLECULE
tmp/1fdjD01.pdb
 147 138 0 0 0
SMALL
GASTEIGER

@<TRIPOS>ATOM
      1  N         22.8090   19.3360   16.4220 N.3    31  ALA31      -0.1245
      2  CA        22.5650   18.0130   15.8900 C.3    31  ALA31       0.1562
      3  C         21.2880   17.5300   16.5620 C.2    31  ALA31       0.2260
      4  O         21.3180   17.0480   17.6930 O.2    31  ALA31      -0.2867
      5  CB        23.7320   17.0900   16.2180 C.3    31  ALA31       0.0290
      6  N         19.3430   15.2930   15.1660 N.3    33  ASP33      -0.1225
      7  CA        19.0690   14.1630   14.2880 C.3    33  ASP33       0.1805
      8  C         18.9540   12.8030   14.9650 C.2    33  ASP33       0.2597
      9  O         19.2910   11.7790   14.3760 O.2    33  ASP33      -0.2718
     10  CB        20.1240   14.1070   13.1800 C.3    33  ASP33       0.1424
     11  CG        21.5270   13.8380   13.7080 C.2    33  ASP33       0.3668
     12  OD1       21.8080   14.1020   14.8990 O.co2  33  ASP33      -0.2456
     13  OD2       22.3570   13.3520   12.9130 O.co2  33  ASP33      -0.2456
     14  N         18.4950   12.7950   16.2040 N.am   34  GLU34      -0.1979
     15  CA        18.3250   11.5530   16.9360 C.3    34  GLU34       0.1602
     16  C         17.1940   10.7810   16.2590 C.2    34  GLU34       0.2287
     17  O         16.1590   11.3610   15.9160 O.2    34  GLU34      -0.2864
     18  CB        17.9510   11.8450   18.3920 C.3    34  GLU34       0.0415
     19  CG        18.9920   12.6330   19.1730 C.3    34  GLU34       0.1163
     20  CD        18.7660   14.1400   19.1790 C.2    34  GLU34       0.3649
     21  OE1       18.2450   14.6870   18.1930 O.co2  34  GLU34      -0.2457
     22  OE2       19.1210   14.7930   20.1800 O.co2  34  GLU34      -0.2457
     23  N         16.1280    9.4020   24.8490 N.3    42  ARG42      -0.1245
     24  CA        16.1870   10.7720   25.2980 C.3    42  ARG42       0.1563
     25  C         14.8690   11.1280   26.0590 C.2    42  ARG42       0.2260
     26  O         14.8950   11.6920   27.1420 O.2    42  ARG42      -0.2867
     27  CB        16.5240   11.7220   24.1420 C.3    42  ARG42       0.0307
     28  CG        17.9780   12.2290   24.2500 C.3    42  ARG42       0.0489
     29  CD        18.5200   12.8380   22.9580 C.3    42  ARG42       0.2205
     30  NE        19.4960   11.9790   22.2530 N.pl3  42  ARG42      -0.0865
     31  CZ        20.1210   10.9020   22.7670 C.cat  42  ARG42       0.5346
     32  NH1       19.8990   10.5000   24.0240 N.pl3  42  ARG42       0.1354
     33  NH2       20.9960   10.1540   22.0760 N.pl3  42  ARG42       0.1354
     34  N         25.2040   14.3830    6.6420 N.3   146  LYS146     -0.1245
     35  CA        26.0310   13.8780    7.7230 C.3   146  LYS146      0.1561
     36  C         26.0760   12.3540    7.6550 C.2   146  LYS146      0.2260
     37  O         25.0510   11.7080    7.4120 O.2   146  LYS146     -0.2867
     38  CB        25.4430   14.2950    9.0710 C.3   146  LYS146      0.0271
     39  CG        26.2950   13.8920   10.2600 C.3   146  LYS146      0.0035
     40  CD        25.4680   13.6730   11.5120 C.3   146  LYS146      0.0206
     41  CE        25.3710   12.1960   11.8310 C.3   146  LYS146      0.1093
     42  NZ        25.4340   11.9820   13.2950 N.3   146  LYS146     -0.1314
     43  N         27.9370    9.0710    9.8750 N.3   148  ARG148     -0.1245
     44  CA        28.7180    8.6750   11.0430 C.3   148  ARG148      0.1563
     45  C         29.3010    7.2820   10.9060 C.2   148  ARG148      0.2260
     46  O         28.5690    6.2960   10.7980 O.2   148  ARG148     -0.2867
     47  CB        27.8640    8.7270   12.3030 C.3   148  ARG148      0.0307
     48  CG        28.5760    8.2580   13.5640 C.3   148  ARG148      0.0489
     49  CD        27.5760    7.9270   14.6560 C.3   148  ARG148      0.2205
     50  NE        28.1800    7.8130   15.9840 N.pl3 148  ARG148     -0.0865
     51  CZ        27.9510    6.8090   16.8260 C.cat 148  ARG148      0.5346
     52  NH1       27.1520    5.8280   16.4710 N.pl3 148  ARG148      0.1354
     53  NH2       28.4750    6.8090   18.0450 N.pl3 148  ARG148      0.1354
     54  N         32.1860   12.3540    9.4790 N.3   187  GLU187     -0.1245
     55  CA        32.2500   12.0880   10.9130 C.3   187  GLU187      0.1567
     56  C         32.8680   10.7320   11.2840 C.2   187  GLU187      0.2260
     57  O         32.1730    9.7150   11.3380 O.2   187  GLU187     -0.2867
     58  CB        30.8610   12.2180   11.5530 C.3   187  GLU187      0.0388
     59  CG        30.8050   11.7620   13.0200 C.3   187  GLU187      0.1160
     60  CD        29.4440   11.9770   13.6800 C.2   187  GLU187      0.3649
     61  OE1       29.3630   11.8470   14.9180 O.co2 187  GLU187     -0.2457
     62  OE2       28.4610   12.2770   12.9720 O.co2 187  GLU187     -0.2457
     63  N         34.0340    8.8940   14.0120 N.3   189  GLU189     -0.1245
     64  CA        34.0680    8.8380   15.4700 C.3   189  GLU189      0.1567
     65  C         34.7360    7.6440   16.1280 C.2   189  GLU189      0.2260
     66  O         34.4300    6.4930   15.8310 O.2   189  GLU189     -0.2867
     67  CB        32.6650    8.9630   16.0680 C.3   189  GLU189      0.0388
     68  CG        32.6920    8.9180   17.6040 C.3   189  GLU189      0.1160
     69  CD        31.3290    8.9650   18.2700 C.2   189  GLU189      0.3649
     70  OE1       30.3010    9.0850   17.5750 O.co2 189  GLU189     -0.2457
     71  OE2       31.3020    8.8830   19.5100 O.co2 189  GLU189     -0.2457
     72  N         33.7140   16.2430   11.4700 N.3   229  LYS229     -0.1245
     73  CA        33.0660   16.1240   12.7690 C.3   229  LYS229      0.1561
     74  C         33.7430   14.9750   13.4980 C.2   229  LYS229      0.2260
     75  O         33.2840   13.8380   13.4820 O.2   229  LYS229     -0.2867
     76  CB        31.5690   15.8540   12.6040 C.3   229  LYS229      0.0271
     77  CG        30.8190   15.7180   13.9110 C.3   229  LYS229      0.0035
     78  CD        29.3190   15.8030   13.7010 C.3   229  LYS229      0.0206
     79  CE        28.5930   15.4110   14.9630 C.3   229  LYS229      0.1093
     80  NZ        27.1580   15.7770   14.9340 N.3   229  LYS229     -0.1314
     81  N         31.9160   16.6590   18.0340 N.3   270  LEU270     -0.1231
     82  CA        30.7350   15.9560   18.4860 C.3   270  LEU270      0.1693
     83  C         30.7390   15.9440   20.0130 C.2   270  LEU270      0.2593
     84  O         31.8050   15.9650   20.6250 O.2   270  LEU270     -0.2718
     85  CB        30.7450   14.5220   17.9220 C.3   270  LEU270      0.0284
     86  CG        31.9340   13.5740   18.1450 C.3   270  LEU270      0.0019
     87  CD1       31.7240   12.7130   19.3880 C.3   270  LEU270      0.0001
     88  CD2       32.1040   12.6750   16.9230 C.3   270  LEU270      0.0001
     89  N         29.5580   15.9090   20.6250 N.am  271  SER271     -0.1938
     90  CA        29.4370   15.8900   22.0860 C.3   271  SER271      0.2055
     91  C         29.9370   14.5970   22.7460 C.2   271  SER271      0.2644
     92  O         30.5930   14.6540   23.7810 O.2   271  SER271     -0.2714
     93  CB        28.0000   16.2220   22.5200 C.3   271  SER271      0.2130
     94  OG        27.0620   16.0480   21.4650 O.3   271  SER271     -0.2179
     95  N         29.5750   13.4460   22.1940 N.am  272  GLY272     -0.1939
     96  CA        30.0380   12.1700   22.7080 C.3   272  GLY272      0.2014
     97  C         29.7010   11.8760   24.1520 C.2   272  GLY272      0.2639
     98  O         30.5470   11.3800   24.9090 O.2   272  GLY272     -0.2714
     99  N         28.4650   12.1660   24.5440 N.am  273  GLY273     -0.1954
    100  CA        28.0520   11.9200   25.9090 C.3   273  GLY273      0.1869
    101  C         28.6690   12.8610   26.9300 C.2   273  GLY273      0.2309
    102  O         28.5270   12.6450   28.1350 O.2   273  GLY273     -0.2863
    103  N         29.1730   20.7500   16.9540 N.3   300  SER300     -0.1202
    104  CA        28.0650   20.0410   16.3150 C.3   300  SER300      0.2020
    105  C         27.6040   19.1450   17.4540 C.2   300  SER300      0.2619
    106  O         27.8430   17.9440   17.4570 O.2   300  SER300     -0.2717
    107  CB        28.5520   19.1940   15.1330 C.3   300  SER300      0.2103
    108  OG        27.4650   18.6130   14.4250 O.3   300  SER300     -0.2182
    109  N         26.9850   19.7660   18.4500 N.am  301  TYR301     -0.1961
    110  CA        26.5340   19.0650   19.6450 C.3   301  TYR301      0.1771
    111  C         25.0830   18.6310   19.6250 C.2   301  TYR301      0.2620
    112  O         24.2320   19.2980   19.0370 O.2   301  TYR301     -0.2715
    113  CB        26.7630   19.9510   20.8810 C.3   301  TYR301      0.0574
    114  CG        28.2070   20.3400   21.1480 C.ar  301  TYR301     -0.0198
    115  CD1       28.5130   21.5020   21.8640 C.ar  301  TYR301     -0.0009
    116  CD2       29.2630   19.5340   20.7220 C.ar  301  TYR301     -0.0009
    117  CE1       29.8360   21.8430   22.1560 C.ar  301  TYR301      0.0417
    118  CE2       30.5900   19.8710   21.0090 C.ar  301  TYR301      0.0417
    119  CZ        30.8680   21.0230   21.7250 C.ar  301  TYR301      0.1957
    120  OH        32.1730   21.3400   22.0100 O.3   301  TYR301     -0.2866
    121  N         24.8150   17.5020   20.2740 N.am  302  GLY302     -0.1940
    122  CA        23.4650   16.9930   20.3880 C.3   302  GLY302      0.2014
    123  C         23.0170   17.2240   21.8190 C.2   302  GLY302      0.2638
    124  O         22.4750   18.2840   22.1420 O.2   302  GLY302     -0.2714
    125  N         23.3250   16.2740   22.6940 N.am  303  ARG303     -0.1977
    126  CA        22.9720   16.3430   24.1070 C.3   303  ARG303      0.1597
    127  C         23.5930   17.5520   24.7870 C.2   303  ARG303      0.2287
    128  O         22.9890   18.1490   25.6770 O.2   303  ARG303     -0.2864
    129  CB        23.3840   15.0590   24.8430 C.3   303  ARG303      0.0334
    130  CG        22.3850   13.9090   24.7070 C.3   303  ARG303      0.0492
    131  CD        22.7980   12.6610   25.4890 C.3   303  ARG303      0.2205
    132  NE        23.9020   11.9370   24.8600 N.pl3 303  ARG303     -0.0865
    133  CZ        24.1040   10.6230   24.9610 C.cat 303  ARG303      0.5346
    134  NH1       23.2880    9.8680   25.6730 N.pl3 303  ARG303      0.1354
    135  NH2       25.1000   10.0500   24.3020 N.pl3 303  ARG303      0.1354
    136  N         25.7560    4.7760   19.2590 N.3   363  TYR363     -0.1298
    137  CA        25.0650    5.9270   19.7980 C.3   363  TYR363      0.1290
    138  C         24.5450    6.6380   18.4880 C.3   363  TYR363      0.2013
    139  O         25.0170    6.2030   17.3540 O.3   363  TYR363     -0.2188
    140  CB        25.9580    6.7630   20.7250 C.3   363  TYR363      0.0480
    141  CG        26.1420    6.1640   22.1490 C.ar  363  TYR363     -0.0204
    142  CD1       25.9230    4.7950   22.3880 C.ar  363  TYR363     -0.0009
    143  CD2       26.5480    6.9800   23.2250 C.ar  363  TYR363     -0.0009
    144  CE1       26.1720    4.2430   23.6650 C.ar  363  TYR363      0.0417
    145  CE2       26.8150    6.4250   24.4890 C.ar  363  TYR363      0.0417
    146  CZ        26.6350    5.0520   24.7080 C.ar  363  TYR363      0.1957
    147  OH        26.9270    4.5060   25.9230 O.3   363  TYR363     -0.2866
@<TRIPOS>BOND
     1    34    35    1
     2    37    36    2
     3    36    35    1
     4    35    38    1
     5    38    39    1
     6    54    55    1
     7    43    44    1
     8    39    40    1
     9    46    45    2
    10    45    44    1
    11    55    56    1
    12    55    58    1
    13    44    47    1
    14    56    57    2
    15    72    73    1
    16    40    41    1
    17    58    59    1
    18    41    42    1
    19    47    48    1
    20    76    73    1
    21    76    77    1
    22    73    74    1
    23    13    11   ar
    24    62    60   ar
    25    59    60    1
    26    10    11    1
    27    10     7    1
    28    75    74    2
    29    48    49    1
    30    60    61   ar
    31    78    77    1
    32    78    79    1
    33    11    12   ar
    34    63    64    1
    35     7     8    1
    36     7     6    1
    37     9     8    2
    38   108   107    1
    39    49    50    1
    40    80    79    1
    41     8    14   am
    42   107   104    1
    43    64    67    1
    44    64    65    1
    45    66    65    2
    46     2     5    1
    47     2     1    1
    48     2     3    1
    49    17    16    2
    50    50    51    2
    51    67    68    1
    52    14    15    1
    53    16    15    1
    54   104   103    1
    55   104   105    1
    56    52    51    1
    57     3     4    2
    58    51    53    1
    59    88    86    1
    60    15    18    1
    61   139   138    1
    62   105   106    2
    63   105   109   am
    64    70    69   ar
    65    68    69    1
    66    85    86    1
    67    85    82    1
    68    81    82    1
    69    86    87    1
    70    21    20   ar
    71    69    71   ar
    72    18    19    1
    73   109   110    1
    74    82    83    1
    75   138   137    1
    76   112   111    2
    77    19    20    1
    78    20    22   ar
    79   136   137    1
    80   111   110    1
    81   111   121   am
    82   110   113    1
    83   137   140    1
    84    83    84    2
    85    83    89   am
    86   121   122    1
    87   122   123    1
    88    89    90    1
    89   116   118   ar
    90   116   114   ar
    91   140   141    1
    92   113   114    1
    93   118   119   ar
    94   114   115   ar
    95    94    93    1
    96   119   120    1
    97   119   117   ar
    98   123   124    2
    99   123   125   am
   100   115   117   ar
   101    33    31    1
   102    90    93    1
   103    90    91    1
   104   141   142   ar
   105   141   143   ar
   106    95    96    1
   107    95    91   am
   108    30    31    2
   109    30    29    1
   110   142   144   ar
   111   125   126    1
   112    96    97    1
   113    91    92    2
   114    31    32    1
   115    29    28    1
   116   143   145   ar
   117   144   146   ar
   118   126   127    1
   119   126   129    1
   120    27    28    1
   121    27    24    1
   122    97    99   am
   123    97    98    2
   124   135   133    1
   125   145   146   ar
   126    99   100    1
   127   130   129    1
   128   130   131    1
   129   146   147    1
   130   127   128    2
   131    23    24    1
   132   132   133    2
   133   132   131    1
   134   133   134    1
   135    24    25    1
   136   100   101    1
   137    25    26    2
   138   101   102    2
