@<TRIPOS>MOLECULE
tmp/1fdkA00.pdb
 166 164 0 0 0
SMALL
GASTEIGER

@<TRIPOS>ATOM
      1  N         33.6350    2.6460   75.0450 N.3     2  LEU2       -0.1245
      2  CA        33.3340    1.7430   73.9580 C.3     2  LEU2        0.1561
      3  C         32.6640    0.4280   74.3950 C.2     2  LEU2        0.2260
      4  O         31.7190   -0.0580   73.7620 O.2     2  LEU2       -0.2867
      5  CB        34.6330    1.4950   73.2280 C.3     2  LEU2        0.0270
      6  CG        34.5570    1.1180   71.7670 C.3     2  LEU2        0.0019
      7  CD1       34.6480   -0.3870   71.6760 C.3     2  LEU2        0.0001
      8  CD2       33.2820    1.7110   71.1150 C.3     2  LEU2        0.0001
      9  N         28.9290    0.8080   75.3130 N.3     5  PHE5       -0.1227
     10  CA        28.1620    1.0010   74.0890 C.3     5  PHE5        0.1736
     11  C         27.9940   -0.3720   73.4420 C.2     5  PHE5        0.2595
     12  O         26.9180   -0.7090   72.9510 O.2     5  PHE5       -0.2718
     13  CB        28.9000    1.9660   73.1470 C.3     5  PHE5        0.0547
     14  CG        28.1420    2.3170   71.8810 C.ar    5  PHE5       -0.0202
     15  CD1       26.7480    2.2720   71.8400 C.ar    5  PHE5       -0.0042
     16  CD2       28.8240    2.7260   70.7400 C.ar    5  PHE5       -0.0042
     17  CE1       26.0530    2.6280   70.6860 C.ar    5  PHE5       -0.0003
     18  CE2       28.1190    3.0880   69.5760 C.ar    5  PHE5       -0.0003
     19  CZ        26.7440    3.0370   69.5570 C.ar    5  PHE5       -0.0000
     20  N         29.0520   -1.1810   73.4620 N.am    6  ASN6       -0.1974
     21  CA        28.9620   -2.5230   72.9000 C.3     6  ASN6        0.1688
     22  C         27.8850   -3.3080   73.6450 C.2     6  ASN6        0.2292
     23  O         27.0210   -3.9510   73.0300 O.2     6  ASN6       -0.2864
     24  CB        30.2880   -3.2620   73.0220 C.3     6  ASN6        0.1181
     25  CG        30.2420   -4.6130   72.3480 C.2     6  ASN6        0.2629
     26  OD1       30.0660   -4.6870   71.1310 O.2     6  ASN6       -0.2716
     27  ND2       30.3580   -5.6870   73.1260 N.am    6  ASN6       -0.0877
     28  N         24.1520   -2.2460   72.7580 N.3     9  ILE9       -0.1245
     29  CA        23.6070   -2.7850   71.5050 C.3     9  ILE9        0.1561
     30  C         23.1980   -4.2660   71.6680 C.2     9  ILE9        0.2260
     31  O         22.1700   -4.6940   71.1290 O.2     9  ILE9       -0.2867
     32  CB        24.6000   -2.6000   70.3410 C.3     9  ILE9        0.0252
     33  CG1       24.9250   -1.1170   70.1610 C.3     9  ILE9        0.0019
     34  CG2       24.0150   -3.1690   69.0550 C.3     9  ILE9        0.0019
     35  CD1       26.2750   -0.8910   69.6180 C.3     9  ILE9        0.0001
     36  N         28.1750   -6.5270   68.0760 N.3    18  PRO18      -0.2102
     37  CA        28.2100   -5.1530   67.5800 C.3    18  PRO18       0.1504
     38  C         29.5190   -4.7300   67.0160 C.2    18  PRO18       0.2575
     39  O         29.5680   -4.1000   65.9610 O.2    18  PRO18      -0.2718
     40  CB        27.8580   -4.3380   68.8280 C.3    18  PRO18       0.0282
     41  CG        26.9370   -5.2330   69.5690 C.3    18  PRO18       0.0208
     42  CD        27.6570   -6.5450   69.4580 C.3    18  PRO18       0.0893
     43  N         30.5900   -5.0310   67.7280 N.am   19  LEU19      -0.1980
     44  CA        31.8880   -4.6280   67.2440 C.3    19  LEU19       0.1596
     45  C         32.1890   -5.2960   65.9200 C.2    19  LEU19       0.2287
     46  O         32.9540   -4.7890   65.1320 O.2    19  LEU19      -0.2864
     47  CB        32.9630   -4.9240   68.2800 C.3    19  LEU19       0.0297
     48  CG        34.2570   -4.1090   68.1980 C.3    19  LEU19       0.0022
     49  CD1       35.3430   -4.8440   67.3890 C.3    19  LEU19       0.0001
     50  CD2       33.9370   -2.7010   67.6250 C.3    19  LEU19       0.0001
     51  N         28.4780   -3.9110   63.4780 N.3    22  PHE22      -0.1227
     52  CA        28.2930   -2.4940   63.1980 C.3    22  PHE22       0.1736
     53  C         29.4930   -1.6220   62.9480 C.2    22  PHE22       0.2595
     54  O         29.3590   -0.4850   62.4960 O.2    22  PHE22      -0.2718
     55  CB        27.4330   -1.8900   64.2810 C.3    22  PHE22       0.0547
     56  CG        26.1200   -2.5800   64.4370 C.ar   22  PHE22      -0.0202
     57  CD1       25.0720   -2.2990   63.5730 C.ar   22  PHE22      -0.0042
     58  CD2       25.9250   -3.5090   65.4530 C.ar   22  PHE22      -0.0042
     59  CE1       23.8620   -2.9190   63.7210 C.ar   22  PHE22      -0.0003
     60  CE2       24.7160   -4.1360   65.6080 C.ar   22  PHE22      -0.0003
     61  CZ        23.6820   -3.8450   64.7460 C.ar   22  PHE22      -0.0000
     62  N         30.6780   -2.1210   63.2340 N.am   23  ASN23      -0.1960
     63  CA        31.8370   -1.3180   62.9750 C.3    23  ASN23       0.1819
     64  C         32.0900   -1.4600   61.4790 C.2    23  ASN23       0.2621
     65  O         31.7690   -2.4930   60.8910 O.2    23  ASN23      -0.2715
     66  CB        33.0140   -1.8310   63.7880 C.3    23  ASN23       0.1195
     67  CG        34.2070   -0.9280   63.7070 C.2    23  ASN23       0.2630
     68  OD1       34.0910    0.2640   63.4140 O.2    23  ASN23      -0.2716
     69  ND2       35.3740   -1.4850   63.9480 N.am   23  ASN23      -0.0877
     70  N         32.5800   -0.3980   60.8480 N.am   24  ASN24      -0.1972
     71  CA        32.8860   -0.4340   59.4180 C.3    24  ASN24       0.1688
     72  C         31.6650   -0.5650   58.5360 C.2    24  ASN24       0.2292
     73  O         31.7260   -1.2400   57.5200 O.2    24  ASN24      -0.2864
     74  CB        33.8020   -1.6090   59.1010 C.3    24  ASN24       0.1181
     75  CG        35.1520   -1.1740   58.6140 C.2    24  ASN24       0.2629
     76  OD1       35.4530   -1.2500   57.4230 O.2    24  ASN24      -0.2716
     77  ND2       35.9880   -0.7040   59.5380 N.am   24  ASN24      -0.0877
     78  N         29.3200    6.2060   58.2770 N.3    28  TYR28      -0.1227
     79  CA        29.4360    6.7240   59.6410 C.3    28  TYR28       0.1736
     80  C         29.7050    5.7660   60.7790 C.2    28  TYR28       0.2596
     81  O         30.2120    6.2030   61.8370 O.2    28  TYR28      -0.2718
     82  CB        28.2070    7.5440   60.0030 C.3    28  TYR28       0.0548
     83  CG        28.1930    8.8460   59.2910 C.ar   28  TYR28      -0.0200
     84  CD1       27.6450    8.9650   58.0060 C.ar   28  TYR28      -0.0009
     85  CD2       28.7520    9.9640   59.8820 C.ar   28  TYR28      -0.0009
     86  CE1       27.6610   10.1670   57.3350 C.ar   28  TYR28       0.0417
     87  CE2       28.7830   11.1670   59.2280 C.ar   28  TYR28       0.0417
     88  CZ        28.2340   11.2670   57.9580 C.ar   28  TYR28       0.1957
     89  OH        28.2910   12.4890   57.3290 O.3    28  TYR28      -0.2866
     90  N         29.3050    4.5070   60.6290 N.am   29  CYS29      -0.1956
     91  CA        29.5040    3.5210   61.6900 C.3    29  CYS29       0.1843
     92  C         30.9360    3.1070   61.7100 C.2    29  CYS29       0.2626
     93  O         31.4020    2.4500   60.8040 O.2    29  CYS29      -0.2714
     94  CB        28.6450    2.3100   61.4640 C.3    29  CYS29       0.0997
     95  SG        26.9220    2.7580   61.1560 S.3    29  CYS29      -0.0797
     96  N         31.6300    3.4930   62.7670 N.am   30  GLY30      -0.1940
     97  CA        33.0430    3.2110   62.8870 C.3    30  GLY30       0.2014
     98  C         33.7320    4.5150   63.2400 C.2    30  GLY30       0.2638
     99  O         33.0970    5.5900   63.3120 O.2    30  GLY30      -0.2714
    100  N         35.0330    4.4530   63.4630 N.am   31  LEU31      -0.1977
    101  CA        35.7350    5.6690   63.8180 C.3    31  LEU31       0.1596
    102  C         35.6430    6.6680   62.6770 C.2    31  LEU31       0.2287
    103  O         35.8280    6.3040   61.5240 O.2    31  LEU31      -0.2864
    104  CB        37.1780    5.3620   64.1820 C.3    31  LEU31       0.0297
    105  CG        37.4850    6.1280   65.4670 C.3    31  LEU31       0.0022
    106  CD1       36.4820    5.7300   66.5450 C.3    31  LEU31       0.0001
    107  CD2       38.8970    5.8520   65.9220 C.3    31  LEU31       0.0001
    108  N         24.1680    6.1500   63.0480 N.3    45  CYS45      -0.1235
    109  CA        25.5920    6.3840   63.2970 C.3    45  CYS45       0.1677
    110  C         25.9820    7.8570   63.1370 C.2    45  CYS45       0.2270
    111  O         26.7980    8.3800   63.9020 O.2    45  CYS45      -0.2867
    112  CB        26.4330    5.5320   62.3390 C.3    45  CYS45       0.0956
    113  SG        26.3470    3.7950   62.8060 S.3    45  CYS45      -0.0801
    114  N         24.7000    9.6560   66.2190 N.3    48  HIS48      -0.1226
    115  CA        25.5610    9.2750   67.3360 C.3    48  HIS48       0.1752
    116  C         26.8880   10.0520   67.2820 C.2    48  HIS48       0.2596
    117  O         27.3790   10.5090   68.3070 O.2    48  HIS48      -0.2718
    118  CB        25.8030    7.7510   67.3120 C.3    48  HIS48       0.0759
    119  CG        26.5720    7.2390   68.4820 C.ar   48  HIS48       0.0818
    120  ND1       27.8230    6.6840   68.3610 N.ar   48  HIS48      -0.2268
    121  CD2       26.2800    7.2260   69.8050 C.ar   48  HIS48       0.1154
    122  CE1       28.2820    6.3540   69.5560 C.ar   48  HIS48       0.1986
    123  NE2       27.3630    6.6730   70.4480 N.ar   48  HIS48      -0.2212
    124  N         27.4570   10.1980   66.0860 N.am   49  ASP49      -0.1974
    125  CA        28.7080   10.9390   65.9020 C.3    49  ASP49       0.1709
    126  C         28.5100   12.4230   66.2330 C.2    49  ASP49       0.2293
    127  O         29.3890   13.0630   66.7890 O.2    49  ASP49      -0.2864
    128  CB        29.2100   10.7950   64.4560 C.3    49  ASP49       0.1436
    129  CG        29.8190    9.4150   64.1640 C.2    49  ASP49       0.3671
    130  OD1       29.7430    8.5160   65.0140 O.co2  49  ASP49      -0.2456
    131  OD2       30.3890    9.2220   63.0790 O.co2  49  ASP49      -0.2456
    132  N         28.4100   12.7220   70.1290 N.3    52  TYR52      -0.1241
    133  CA        29.7310   12.7530   70.7740 C.3    52  TYR52       0.1605
    134  C         30.3870   14.1310   70.5570 C.2    52  TYR52       0.2264
    135  O         31.0320   14.6550   71.4700 O.2    52  TYR52      -0.2867
    136  CB        30.6390   11.6830   70.1820 C.3    52  TYR52       0.0534
    137  CG        30.4740   10.2840   70.7350 C.ar   52  TYR52      -0.0201
    138  CD1       29.4860    9.9830   71.6780 C.ar   52  TYR52      -0.0009
    139  CD2       31.3620    9.2740   70.3640 C.ar   52  TYR52      -0.0009
    140  CE1       29.3950    8.7150   72.2510 C.ar   52  TYR52       0.0417
    141  CE2       31.2830    7.9990   70.9220 C.ar   52  TYR52       0.0417
    142  CZ        30.3000    7.7250   71.8680 C.ar   52  TYR52       0.1957
    143  OH        30.2530    6.4690   72.4390 O.3    52  TYR52      -0.2866
    144  N         35.2520    7.7290   73.8710 N.3    69  TYR69      -0.1241
    145  CA        35.5460    6.3140   73.6610 C.3    69  TYR69       0.1605
    146  C         36.0930    5.5150   74.8320 C.2    69  TYR69       0.2264
    147  O         35.8860    4.3010   74.9260 O.2    69  TYR69      -0.2867
    148  CB        36.4450    6.1500   72.4440 C.3    69  TYR69       0.0534
    149  CG        35.6420    6.3200   71.1940 C.ar   69  TYR69      -0.0201
    150  CD1       34.8710    5.2690   70.7090 C.ar   69  TYR69      -0.0009
    151  CD2       35.5520    7.5530   70.5600 C.ar   69  TYR69      -0.0009
    152  CE1       34.0290    5.4350   69.6370 C.ar   69  TYR69       0.0417
    153  CE2       34.7060    7.7350   69.4820 C.ar   69  TYR69       0.0417
    154  CZ        33.9450    6.6700   69.0240 C.ar   69  TYR69       0.1957
    155  OH        33.0940    6.8290   67.9520 O.3    69  TYR69      -0.2866
    156  N         19.7120    1.4730   66.2760 N.3   106  PHE106     -0.1241
    157  CA        20.2750    0.3130   65.5940 C.3   106  PHE106      0.1605
    158  C         19.2190   -0.7910   65.5380 C.2   106  PHE106      0.2264
    159  O         18.9700   -1.3440   64.4550 O.2   106  PHE106     -0.2867
    160  CB        21.5450   -0.2220   66.3110 C.3   106  PHE106      0.0534
    161  CG        22.7980    0.6250   66.1260 C.ar  106  PHE106     -0.0203
    162  CD1       22.7680    1.8700   65.5070 C.ar  106  PHE106     -0.0042
    163  CD2       24.0240    0.1570   66.6040 C.ar  106  PHE106     -0.0042
    164  CE1       23.9430    2.6520   65.3640 C.ar  106  PHE106     -0.0003
    165  CE2       25.1970    0.9240   66.4640 C.ar  106  PHE106     -0.0003
    166  CZ        25.1470    2.1770   65.8400 C.ar  106  PHE106     -0.0000
@<TRIPOS>BOND
     1    89    88    1
     2    86    88   ar
     3    86    84   ar
     4    76    75    2
     5    73    72    2
     6    88    87   ar
     7    84    83   ar
     8    78    79    1
     9    72    71    1
    10    75    74    1
    11    75    77   am
    12    74    71    1
    13    87    85   ar
    14    83    85   ar
    15    83    82    1
    16    71    70    1
    17    79    82    1
    18    79    80    1
    19    90    80   am
    20    90    91    1
    21    80    81    2
    22    93    92    2
    23    70    64   am
    24    65    64    2
    25    95    94    1
    26    95   113    1
    27    94    91    1
    28    64    63    1
    29   103   102    2
    30    91    92    1
    31    92    96   am
    32   112   113    1
    33   112   109    1
    34    54    53    2
    35   102   101    1
    36    96    97    1
    37    97    98    1
    38    53    52    1
    39    53    62   am
    40    63    62    1
    41    63    66    1
    42   108   109    1
    43   131   129   ar
    44   110   109    1
    45   110   111    2
    46    52    51    1
    47    52    55    1
    48    98    99    2
    49    98   100   am
    50    68    67    2
    51   100   101    1
    52    57    59   ar
    53    57    56   ar
    54    67    66    1
    55    67    69   am
    56    59    61   ar
    57   101   104    1
    58   129   128    1
    59   129   130   ar
    60   104   105    1
    61    55    56    1
    62    56    58   ar
    63   159   158    2
    64   128   125    1
    65    61    60   ar
    66    46    45    2
    67   164   162   ar
    68   164   166   ar
    69    58    60   ar
    70   105   107    1
    71   105   106    1
    72   162   161   ar
    73   158   157    1
    74   157   156    1
    75   157   160    1
    76   166   165   ar
    77   125   124    1
    78   125   126    1
    79    45    44    1
    80    39    38    2
    81   124   116   am
    82   161   160    1
    83   161   163   ar
    84   114   115    1
    85   126   127    2
    86   165   163   ar
    87    38    37    1
    88    38    43   am
    89    44    43    1
    90    44    47    1
    91   116   115    1
    92   116   117    2
    93   118   115    1
    94   118   119    1
    95    49    48    1
    96    37    36    1
    97    37    40    1
    98    50    48    1
    99   155   154    1
   100    36    42    1
   101    48    47    1
   102   120   119   ar
   103   120   122   ar
   104   119   121   ar
   105    40    41    1
   106   154   153   ar
   107   154   152   ar
   108    34    32    1
   109    42    41    1
   110   153   151   ar
   111   122   123   ar
   112    19    18   ar
   113    19    17   ar
   114    18    16   ar
   115    35    33    1
   116   152   150   ar
   117   121   123   ar
   118   132   133    1
   119    33    32    1
   120   136   137    1
   121   136   133    1
   122    32    29    1
   123   139   137   ar
   124   139   141   ar
   125   134   133    1
   126   134   135    2
   127   151   149   ar
   128    17    15   ar
   129   150   149   ar
   130   137   138   ar
   131    16    14   ar
   132   141   142   ar
   133     8     6    1
   134    31    30    2
   135    26    25    2
   136   149   148    1
   137    29    30    1
   138    29    28    1
   139     7     6    1
   140   138   140   ar
   141     6     5    1
   142    15    14   ar
   143   142   140   ar
   144   142   143    1
   145    14    13    1
   146    25    24    1
   147    25    27   am
   148   148   145    1
   149    21    24    1
   150    21    20    1
   151    21    22    1
   152    12    11    2
   153    23    22    2
   154    13    10    1
   155     5     2    1
   156    11    20   am
   157    11    10    1
   158   145   144    1
   159   145   146    1
   160     4     3    2
   161     2     3    1
   162     2     1    1
   163    10     9    1
   164   146   147    2
