@<TRIPOS>MOLECULE
tmp/1fduD00.pdb
 176 168 0 0 0
SMALL
GASTEIGER

@<TRIPOS>ATOM
      1  N         11.9070   48.2940   10.5010 N.3   142  SER142     -0.1202
      2  CA        10.9140   49.3110   10.0070 C.3   142  SER142      0.2020
      3  C         11.1700   50.5870   10.7840 C.2   142  SER142      0.2619
      4  O         11.4860   50.4050   11.9730 O.2   142  SER142     -0.2717
      5  CB         9.5360   48.6990   10.2440 C.3   142  SER142      0.2103
      6  OG         8.5510   49.5580   10.7950 O.3   142  SER142     -0.2182
      7  N         11.0610   51.7920   10.2870 N.am  143  VAL143     -0.1965
      8  CA        11.2990   53.0390   11.0440 C.3   143  VAL143      0.1727
      9  C         10.3630   53.2520   12.2190 C.2   143  VAL143      0.2616
     10  O         10.5850   53.8200   13.3180 O.2   143  VAL143     -0.2715
     11  CB        11.2530   54.2440   10.0720 C.3   143  VAL143      0.0290
     12  CG1       10.9630   55.5840   10.7120 C.3   143  VAL143      0.0023
     13  CG2       12.5420   54.4000    9.2670 C.3   143  VAL143      0.0023
     14  N          9.1520   52.7070   12.1140 N.am  144  GLY144     -0.1955
     15  CA         8.1230   52.7820   13.1370 C.3   144  GLY144      0.1869
     16  C          8.4610   51.8600   14.2990 C.2   144  GLY144      0.2309
     17  O          7.6080   51.6790   15.1590 O.2   144  GLY144     -0.2863
     18  N         10.9500   54.7170   16.2300 N.3   147  MET147     -0.1245
     19  CA        10.3630   55.9040   16.8710 C.3   147  MET147      0.1570
     20  C          8.8600   55.9630   16.8540 C.2   147  MET147      0.2261
     21  O          8.1930   55.4600   15.9830 O.2   147  MET147     -0.2867
     22  CB        10.9580   57.1350   16.2190 C.3   147  MET147      0.0387
     23  CG        10.6340   57.1160   14.7130 C.3   147  MET147      0.0595
     24  SD        11.7950   58.2940   13.8620 S.3   147  MET147     -0.1393
     25  CE        10.4690   59.3250   13.1850 C.3   147  MET147      0.0692
     26  N          4.9690   57.0280   16.1820 N.3   149  LEU149     -0.1245
     27  CA         4.2850   57.8380   15.1580 C.3   149  LEU149      0.1561
     28  C          2.7970   57.8700   15.4960 C.2   149  LEU149      0.2260
     29  O          2.2500   56.8370   15.7980 O.2   149  LEU149     -0.2867
     30  CB         4.4080   57.2000   13.7650 C.3   149  LEU149      0.0270
     31  CG         5.8460   57.1450   13.2040 C.3   149  LEU149      0.0019
     32  CD1        6.0770   55.8490   12.4500 C.3   149  LEU149      0.0001
     33  CD2        6.1550   58.3410   12.3300 C.3   149  LEU149      0.0001
     34  N         -0.3400   55.1840   14.9590 N.3   152  ASN152     -0.1240
     35  CA         0.2220   53.8820   14.6930 C.3   152  ASN152      0.1653
     36  C          0.7260   53.1970   15.9790 C.2   152  ASN152      0.2266
     37  O          1.6770   52.3970   15.9320 O.2   152  ASN152     -0.2867
     38  CB         1.4900   54.0610   13.8420 C.3   152  ASN152      0.1155
     39  CG         1.1800   54.4540   12.4130 C.2   152  ASN152      0.2627
     40  OD1        1.0770   55.6450   12.1310 O.2   152  ASN152     -0.2716
     41  ND2        1.0900   53.4590   11.5360 N.am  152  ASN152     -0.0877
     42  N          0.8990   49.4290   16.0340 N.3   155  TYR155     -0.1241
     43  CA         1.8710   49.0340   15.0180 C.3   155  TYR155      0.1605
     44  C          3.2900   49.2800   15.4970 C.2   155  TYR155      0.2264
     45  O          4.2380   48.4820   15.3310 O.2   155  TYR155     -0.2867
     46  CB         1.5990   49.7870   13.7320 C.3   155  TYR155      0.0534
     47  CG         2.7190   49.6270   12.7090 C.ar  155  TYR155     -0.0201
     48  CD1        2.9040   48.4120   12.0620 C.ar  155  TYR155     -0.0009
     49  CD2        3.5920   50.6470   12.4100 C.ar  155  TYR155     -0.0009
     50  CE1        3.9260   48.2680   11.1540 C.ar  155  TYR155      0.0417
     51  CE2        4.6380   50.5080   11.5210 C.ar  155  TYR155      0.0417
     52  CZ         4.8040   49.3100   10.8950 C.ar  155  TYR155      0.1957
     53  OH         5.8390   49.0850    9.9830 O.3   155  TYR155     -0.2866
     54  N         13.8730   49.7960    7.2620 N.3   185  CYS185     -0.1221
     55  CA        13.2540   50.5280    6.1760 C.3   185  CYS185      0.1808
     56  C         12.3540   51.7070    6.5550 C.2   185  CYS185      0.2602
     57  O         11.7710   51.7370    7.6590 O.2   185  CYS185     -0.2717
     58  CB        12.2000   49.5860    5.4840 C.3   185  CYS185      0.0970
     59  SG        12.7430   48.0020    4.9470 S.3   185  CYS185     -0.0800
     60  N         12.1150   52.5800    5.5680 N.am  186  GLY186     -0.1943
     61  CA        11.1000   53.6590    5.8040 C.3   186  GLY186      0.1998
     62  C         10.0030   53.2580    4.8070 C.2   186  GLY186      0.2480
     63  O          9.9620   52.1120    4.3600 O.2   186  GLY186     -0.2729
     64  N          9.1680   54.1350    4.3640 N.am  187  PRO187     -0.2726
     65  CA         8.2050   53.8030    3.3190 C.3   187  PRO187      0.1402
     66  C          8.9290   53.0880    2.1690 C.2   187  PRO187      0.2269
     67  O         10.0390   53.3220    1.7400 O.2   187  PRO187     -0.2865
     68  CB         7.6160   55.1280    2.8630 C.3   187  PRO187      0.0296
     69  CG         7.7740   55.9380    4.1250 C.3   187  PRO187      0.0237
     70  CD         9.1010   55.5220    4.7620 C.3   187  PRO187      0.0939
     71  N          1.6950   46.7470    1.3250 N.3   192  PHE192     -0.1227
     72  CA         1.5750   47.0700    2.7070 C.3   192  PHE192      0.1736
     73  C          0.5510   48.0910    3.0970 C.2   192  PHE192      0.2595
     74  O         -0.3020   47.8160    3.9370 O.2   192  PHE192     -0.2718
     75  CB         2.9500   47.5000    3.2510 C.3   192  PHE192      0.0547
     76  CG         2.9470   47.7750    4.7320 C.ar  192  PHE192     -0.0202
     77  CD1        2.7130   46.7860    5.6510 C.ar  192  PHE192     -0.0042
     78  CD2        3.2010   49.0700    5.1920 C.ar  192  PHE192     -0.0042
     79  CE1        2.7320   47.0940    6.9940 C.ar  192  PHE192     -0.0003
     80  CE2        3.1940   49.3900    6.5270 C.ar  192  PHE192     -0.0003
     81  CZ         2.9530   48.3810    7.4390 C.ar  192  PHE192     -0.0000
     82  N          0.6890   49.2810    2.5100 N.am  193  MET193     -0.1979
     83  CA        -0.2410   50.3390    2.9310 C.3   193  MET193      0.1605
     84  C         -1.6020   50.2100    2.3370 C.2   193  MET193      0.2287
     85  O         -2.6110   50.6810    2.8950 O.2   193  MET193     -0.2864
     86  CB         0.4460   51.6850    2.9400 C.3   193  MET193      0.0413
     87  CG         1.6530   51.8020    3.8940 C.3   193  MET193      0.0598
     88  SD         1.1610   51.9940    5.6380 S.3   193  MET193     -0.1393
     89  CE         0.1410   53.4780    5.4930 C.3   193  MET193      0.0692
     90  N         -3.5720   63.5880    9.9150 N.3   214  TYR214     -0.1241
     91  CA        -2.4420   62.6800    9.7670 C.3   214  TYR214      0.1605
     92  C         -2.4890   61.8820    8.4580 C.2   214  TYR214      0.2264
     93  O         -1.5830   61.8370    7.6650 O.2   214  TYR214     -0.2867
     94  CB        -2.6690   61.6000   10.8900 C.3   214  TYR214      0.0534
     95  CG        -1.5850   60.5490   10.6840 C.ar  214  TYR214     -0.0201
     96  CD1       -0.2490   60.9260   10.8410 C.ar  214  TYR214     -0.0009
     97  CD2       -1.8940   59.2720   10.2530 C.ar  214  TYR214     -0.0009
     98  CE1        0.7520   60.0090   10.6470 C.ar  214  TYR214      0.0417
     99  CE2       -0.8750   58.3570   10.0440 C.ar  214  TYR214      0.0417
    100  CZ         0.4210   58.7350   10.2650 C.ar  214  TYR214      0.1957
    101  OH         1.4320   57.8160   10.0600 O.3   214  TYR214     -0.2866
    102  N         -1.6110   63.5840    5.1950 N.3   217  LEU217     -0.1231
    103  CA        -0.1790   63.8840    5.0640 C.3   217  LEU217      0.1693
    104  C          0.6160   62.6040    4.9430 C.2   217  LEU217      0.2592
    105  O          1.6520   62.5840    4.2700 O.2   217  LEU217     -0.2718
    106  CB         0.2680   64.7070    6.2210 C.3   217  LEU217      0.0284
    107  CG         1.4620   65.6430    6.1160 C.3   217  LEU217      0.0019
    108  CD1        2.6390   65.0650    6.9140 C.3   217  LEU217      0.0001
    109  CD2        1.9010   66.0180    4.7170 C.3   217  LEU217      0.0001
    110  N          0.1500   61.5160    5.5800 N.am  218  SER218     -0.1952
    111  CA         0.9280   60.2610    5.4900 C.3   218  SER218      0.1924
    112  C          0.9940   59.8460    4.0310 C.2   218  SER218      0.2314
    113  O          2.0670   59.7800    3.4120 O.2   218  SER218     -0.2863
    114  CB         0.4140   59.2130    6.4310 C.3   218  SER218      0.2116
    115  OG        -0.8800   58.7670    6.1870 O.3   218  SER218     -0.2180
    116  N          3.3500   61.9700    1.9120 N.3   221  VAL221     -0.1231
    117  CA         4.7440   61.7240    2.2340 C.3   221  VAL221      0.1692
    118  C          5.1570   60.3350    1.8010 C.2   221  VAL221      0.2592
    119  O          6.3020   60.1040    1.3840 O.2   221  VAL221     -0.2718
    120  CB         4.9870   61.9290    3.7220 C.3   221  VAL221      0.0266
    121  CG1        6.4030   61.4860    4.0890 C.3   221  VAL221      0.0020
    122  CG2        4.8070   63.3910    4.1020 C.3   221  VAL221      0.0020
    123  N          4.2520   59.3560    1.9200 N.am  222  PHE222     -0.1976
    124  CA         4.7020   58.0040    1.4920 C.3   222  PHE222      0.1639
    125  C          5.1250   58.1470    0.0350 C.2   222  PHE222      0.2290
    126  O          6.2690   57.9760   -0.3220 O.2   222  PHE222     -0.2864
    127  CB         3.5680   57.0220    1.6010 C.3   222  PHE222      0.0560
    128  CG         3.9930   55.6010    1.7970 C.ar  222  PHE222     -0.0200
    129  CD1        4.3000   55.1430    3.0720 C.ar  222  PHE222     -0.0042
    130  CD2        4.0460   54.7370    0.7200 C.ar  222  PHE222     -0.0042
    131  CE1        4.6920   53.8290    3.2660 C.ar  222  PHE222     -0.0003
    132  CE2        4.4330   53.4170    0.8900 C.ar  222  PHE222     -0.0003
    133  CZ         4.7750   52.9760    2.1670 C.ar  222  PHE222     -0.0000
    134  N         15.9830   58.9430    7.8240 N.3   255  PHE255     -0.1241
    135  CA        15.4000   59.2910    9.1380 C.3   255  PHE255      0.1605
    136  C         16.4530   59.3080   10.2110 C.2   255  PHE255      0.2264
    137  O         16.2110   59.6390   11.3620 O.2   255  PHE255     -0.2867
    138  CB        14.1290   58.6040    9.4990 C.3   255  PHE255      0.0534
    139  CG        13.0510   58.4620    8.4650 C.ar  255  PHE255     -0.0203
    140  CD1       13.1920   57.5990    7.3810 C.ar  255  PHE255     -0.0042
    141  CD2       11.8630   59.1670    8.5680 C.ar  255  PHE255     -0.0042
    142  CE1       12.2140   57.4630    6.4370 C.ar  255  PHE255     -0.0003
    143  CE2       10.8620   59.0200    7.6210 C.ar  255  PHE255     -0.0003
    144  CZ        11.0330   58.1740    6.5460 C.ar  255  PHE255     -0.0000
    145  N         16.3580   62.5080   12.4140 N.3   258  LEU258     -0.1245
    146  CA        15.2460   62.4940   13.3680 C.3   258  LEU258      0.1561
    147  C         15.6090   61.5200   14.4940 C.2   258  LEU258      0.2260
    148  O         15.3460   61.8070   15.6410 O.2   258  LEU258     -0.2867
    149  CB        13.9560   62.0210   12.7260 C.3   258  LEU258      0.0270
    150  CG        12.6370   62.6630   13.1310 C.3   258  LEU258      0.0019
    151  CD1       12.7660   63.6050   14.3150 C.3   258  LEU258      0.0001
    152  CD2       12.0280   63.3900   11.9320 C.3   258  LEU258      0.0001
    153  N          8.3380   65.6740   16.3240 N.3   275  MET275     -0.1245
    154  CA         7.3880   64.9080   15.5340 C.3   275  MET275      0.1570
    155  C          5.9740   65.4110   15.5880 C.2   275  MET275      0.2261
    156  O          5.1780   65.1660   14.6950 O.2   275  MET275     -0.2867
    157  CB         7.4300   63.4740   16.0520 C.3   275  MET275      0.0387
    158  CG         6.4780   62.5680   15.3200 C.3   275  MET275      0.0595
    159  SD         6.9470   62.4080   13.6160 S.3   275  MET275     -0.1393
    160  CE         8.6830   62.0940   13.6670 C.3   275  MET275      0.0692
    161  N          6.2280   67.7930   12.8670 N.3   278  GLU278     -0.1231
    162  CA         6.2920   67.2120   11.5270 C.3   278  GLU278      0.1699
    163  C          4.9000   66.8270   11.0230 C.2   278  GLU278      0.2592
    164  O          4.4850   67.1130    9.9080 O.2   278  GLU278     -0.2718
    165  CB         7.1150   65.9310   11.5570 C.3   278  GLU278      0.0402
    166  CG         7.8420   65.7850   10.2210 C.3   278  GLU278      0.1161
    167  CD         9.0510   66.7270   10.2380 C.2   278  GLU278      0.3649
    168  OE1        9.2170   67.4000   11.2910 O.co2 278  GLU278     -0.2457
    169  OE2        9.7730   66.7460    9.2160 O.co2 278  GLU278     -0.2457
    170  N          4.1750   66.1070   11.8620 N.am  279  VAL279     -0.1980
    171  CA         2.8840   65.5780   11.5150 C.3   279  VAL279      0.1595
    172  C          1.7950   66.6040   11.4210 C.2   279  VAL279      0.2287
    173  O          0.9850   66.4690   10.4730 O.2   279  VAL279     -0.2864
    174  CB         2.5430   64.3380   12.3380 C.3   279  VAL279      0.0276
    175  CG1        1.5870   63.3990   11.6260 C.3   279  VAL279      0.0022
    176  CG2        3.8020   63.5300   12.6430 C.3   279  VAL279      0.0022
@<TRIPOS>BOND
     1   126   125    2
     2   125   124    1
     3   130   132   ar
     4   130   128   ar
     5   132   133   ar
     6    71    72    1
     7   119   118    2
     8   124   127    1
     9   124   123    1
    10   127   128    1
    11    67    66    2
    12   128   129   ar
    13   118   123   am
    14   118   117    1
    15   116   117    1
    16   133   131   ar
    17    66    65    1
    18   117   120    1
    19    84    85    2
    20    84    83    1
    21    82    83    1
    22    82    73   am
    23    72    73    1
    24    72    75    1
    25    68    65    1
    26    68    69    1
    27    83    86    1
    28    86    87    1
    29   129   131   ar
    30    73    74    2
    31    75    76    1
    32    65    64    1
    33   113   112    2
    34   120   121    1
    35   120   122    1
    36    87    88    1
    37   112   111    1
    38    69    70    1
    39   105   104    2
    40    63    62    2
    41    64    70    1
    42    64    62   am
    43   109   107    1
    44    76    78   ar
    45    76    77   ar
    46    62    61    1
    47   104   103    1
    48   104   110   am
    49    59    58    1
    50   103   102    1
    51   103   106    1
    52    78    80   ar
    53    58    55    1
    54   111   110    1
    55   111   114    1
    56    89    88    1
    57    60    61    1
    58    60    56   am
    59    77    79   ar
    60   107   106    1
    61   107   108    1
    62    55    56    1
    63    55    54    1
    64   115   114    1
    65   142   144   ar
    66   142   140   ar
    67    80    81   ar
    68   144   143   ar
    69    56    57    2
    70    79    81   ar
    71   140   139   ar
    72   143   141   ar
    73    93    92    2
    74   134   135    1
    75    92    91    1
    76   139   141   ar
    77   139   138    1
    78   135   138    1
    79   135   136    1
    80   169   167   ar
    81    13    11    1
    82    91    90    1
    83    91    94    1
    84   164   163    2
    85    53    52    1
    86     2     5    1
    87     2     1    1
    88     2     3    1
    89    99    97   ar
    90    99   100   ar
    91   101   100    1
    92    11    12    1
    93    11     8    1
    94   136   137    2
    95   166   167    1
    96   166   165    1
    97   167   168   ar
    98     5     6    1
    99    97    95   ar
   100   100    98   ar
   101     7     3   am
   102     7     8    1
   103   173   172    2
   104    98    96   ar
   105    95    96   ar
   106    95    94    1
   107     3     4    2
   108    52    50   ar
   109    52    51   ar
   110   163   162    1
   111   163   170   am
   112     8     9    1
   113    50    48   ar
   114   172   171    1
   115   171   170    1
   116   171   174    1
   117    51    49   ar
   118   162   165    1
   119   162   161    1
   120    41    39   am
   121   175   174    1
   122   152   150    1
   123    48    47   ar
   124    14     9   am
   125    14    15    1
   126    40    39    2
   127     9    10    2
   128    33    31    1
   129   174   176    1
   130    49    47   ar
   131    39    38    1
   132   145   146    1
   133    32    31    1
   134    47    46    1
   135   149   150    1
   136   149   146    1
   137   150   151    1
   138    15    16    1
   139    25    24    1
   140    31    30    1
   141   146   147    1
   142   159   160    1
   143   159   158    1
   144    46    43    1
   145    30    27    1
   146    38    35    1
   147    24    23    1
   148    16    17    2
   149   147   148    2
   150    35    34    1
   151    35    36    1
   152   156   155    2
   153    23    22    1
   154    43    44    1
   155    43    42    1
   156    27    28    1
   157    27    26    1
   158   158   157    1
   159    45    44    2
   160    28    29    2
   161   154   155    1
   162   154   157    1
   163   154   153    1
   164    37    36    2
   165    21    20    2
   166    22    19    1
   167    18    19    1
   168    20    19    1
