@<TRIPOS>MOLECULE
tmp/1fe3A00.pdb
 219 203 0 0 0
SMALL
GASTEIGER

@<TRIPOS>ATOM
      1  N         92.8850   81.6970  -34.7900 N.3    16  PHE16      -0.1241
      2  CA        93.8330   81.1040  -35.7240 C.3    16  PHE16       0.1605
      3  C         94.6830   82.1510  -36.4430 C.2    16  PHE16       0.2264
      4  O         95.8790   81.9490  -36.6350 O.2    16  PHE16      -0.2867
      5  CB        93.1150   80.1840  -36.7120 C.3    16  PHE16       0.0534
      6  CG        94.0260   79.1990  -37.4040 C.ar   16  PHE16      -0.0203
      7  CD1       94.7880   78.2870  -36.6620 C.ar   16  PHE16      -0.0042
      8  CD2       94.0860   79.1440  -38.8100 C.ar   16  PHE16      -0.0042
      9  CE1       95.5940   77.3250  -37.3190 C.ar   16  PHE16      -0.0003
     10  CE2       94.8910   78.1800  -39.4770 C.ar   16  PHE16      -0.0003
     11  CZ        95.6360   77.2810  -38.7360 C.ar   16  PHE16      -0.0000
     12  N         97.4530   83.2560  -34.4290 N.3    19  TYR19      -0.1227
     13  CA        98.4100   82.1550  -34.3770 C.3    19  TYR19       0.1736
     14  C         99.2040   82.1100  -35.6810 C.2    19  TYR19       0.2595
     15  O        100.4230   81.9280  -35.6880 O.2    19  TYR19      -0.2718
     16  CB        97.6470   80.8370  -34.1620 C.3    19  TYR19       0.0548
     17  CG        98.5130   79.6070  -34.1660 C.ar   19  TYR19      -0.0200
     18  CD1       98.7690   78.9050  -35.3630 C.ar   19  TYR19      -0.0009
     19  CD2       99.1470   79.1840  -33.0010 C.ar   19  TYR19      -0.0009
     20  CE1       99.6600   77.8090  -35.3910 C.ar   19  TYR19       0.0417
     21  CE2      100.0480   78.0920  -33.0180 C.ar   19  TYR19       0.0417
     22  CZ       100.2980   77.4200  -34.2090 C.ar   19  TYR19       0.1957
     23  OH       101.2200   76.4120  -34.2210 O.3    19  TYR19      -0.2866
     24  N         98.5060   82.2870  -36.7890 N.am   20  MET20      -0.1979
     25  CA        99.1560   82.2480  -38.0710 C.3    20  MET20       0.1605
     26  C        100.1920   83.3550  -38.1670 C.2    20  MET20       0.2287
     27  O        101.2890   83.1570  -38.6940 O.2    20  MET20      -0.2864
     28  CB        98.1310   82.3580  -39.1940 C.3    20  MET20       0.0413
     29  CG        97.6620   81.0250  -39.7100 C.3    20  MET20       0.0598
     30  SD        96.9910   81.2300  -41.3670 S.3    20  MET20      -0.1393
     31  CE        95.1720   81.1330  -41.0660 C.3    20  MET20       0.0692
     32  N        103.1810   82.4350  -36.1220 N.3    23  LEU23      -0.1245
     33  CA       104.0190   81.4900  -36.8320 C.3    23  LEU23       0.1561
     34  C        104.8200   82.1830  -37.9290 C.2    23  LEU23       0.2260
     35  O        105.8800   81.7050  -38.3510 O.2    23  LEU23      -0.2867
     36  CB       103.1740   80.3290  -37.3670 C.3    23  LEU23       0.0270
     37  CG       103.6710   78.9650  -36.8520 C.3    23  LEU23       0.0019
     38  CD1      104.1800   79.0770  -35.4030 C.3    23  LEU23       0.0001
     39  CD2      102.5910   77.8930  -36.9740 C.3    23  LEU23       0.0001
     40  N        103.3700   83.1900  -40.8530 N.3    25  VAL25      -0.1245
     41  CA       102.8370   82.7110  -42.1250 C.3    25  VAL25       0.1561
     42  C        102.6350   83.8950  -43.0880 C.2    25  VAL25       0.2260
     43  O        102.1460   84.9730  -42.7000 O.2    25  VAL25      -0.2867
     44  CB       101.4740   81.9720  -41.9370 C.3    25  VAL25       0.0252
     45  CG1      101.0160   81.3510  -43.2590 C.3    25  VAL25       0.0019
     46  CG2      101.5930   80.9210  -40.8450 C.3    25  VAL25       0.0019
     47  N         98.9630   82.9520  -47.8530 N.3    29  THR29      -0.1218
     48  CA        98.4920   81.7620  -47.1260 C.3    29  THR29       0.1862
     49  C         97.5760   82.0760  -45.9460 C.2    29  THR29       0.2287
     50  O         96.8000   81.2360  -45.5240 O.2    29  THR29      -0.2866
     51  CB        99.6520   80.9590  -46.5790 C.3    29  THR29       0.1770
     52  OG1      100.7590   81.0320  -47.4900 O.3    29  THR29      -0.2211
     53  CG2       99.2420   79.5390  -46.4100 C.3    29  THR29       0.0375
     54  N         94.2060   80.4720  -45.6150 N.3    33  GLY33      -0.1225
     55  CA        94.1180   79.7650  -44.3620 C.3    33  GLY33       0.1811
     56  C         93.0340   80.2720  -43.4390 C.2    33  GLY33       0.2280
     57  O         92.6300   79.5660  -42.5330 O.2    33  GLY33      -0.2866
     58  N         89.3260   78.9690  -45.5420 N.3    36  THR36      -0.1218
     59  CA        89.2650   77.5410  -45.8390 C.3    36  THR36       0.1862
     60  C         88.8550   76.6150  -44.6870 C.2    36  THR36       0.2287
     61  O         89.4800   76.6290  -43.6210 O.2    36  THR36      -0.2866
     62  CB        90.6410   77.0990  -46.4120 C.3    36  THR36       0.1770
     63  OG1       90.4860   75.9730  -47.2850 O.3    36  THR36      -0.2211
     64  CG2       91.6400   76.7870  -45.2910 C.3    36  THR36       0.0375
     65  N         88.8910   72.9180  -43.7640 N.3    38  PRO38      -0.2116
     66  CA        89.4340   71.6250  -44.2070 C.3    38  PRO38       0.1372
     67  C         88.8970   70.3240  -43.6070 C.2    38  PRO38       0.2244
     68  O         88.1580   70.3180  -42.6280 O.2    38  PRO38      -0.2868
     69  CB        90.9210   71.7850  -43.8950 C.3    38  PRO38       0.0268
     70  CG        90.8750   72.5040  -42.6110 C.3    38  PRO38       0.0207
     71  CD        89.8190   73.5710  -42.8280 C.3    38  PRO38       0.0892
     72  N         90.2150   66.7980  -42.0680 N.3    40  VAL40      -0.1245
     73  CA        91.3440   66.0850  -41.5480 C.3    40  VAL40       0.1561
     74  C         90.8720   64.6620  -41.3750 C.2    40  VAL40       0.2260
     75  O         89.9290   64.4240  -40.6310 O.2    40  VAL40      -0.2867
     76  CB        91.7440   66.6690  -40.1800 C.3    40  VAL40       0.0252
     77  CG1       92.7060   65.7390  -39.4530 C.3    40  VAL40       0.0019
     78  CG2       92.3750   68.0260  -40.3660 C.3    40  VAL40       0.0019
     79  N         94.9300   65.7520  -44.8840 N.3    53  THR53      -0.1218
     80  CA        94.1450   66.9590  -44.6950 C.3    53  THR53       0.1862
     81  C         93.7850   67.4740  -46.0680 C.2    53  THR53       0.2287
     82  O         94.6470   67.5710  -46.9430 O.2    53  THR53      -0.2866
     83  CB        94.9010   68.0130  -43.8970 C.3    53  THR53       0.1770
     84  OG1       95.3220   67.4380  -42.6510 O.3    53  THR53      -0.2211
     85  CG2       93.9840   69.1820  -43.5930 C.3    53  THR53       0.0375
     86  N         91.7650   70.4660  -48.4220 N.3    55  SER55      -0.1217
     87  CA        91.2180   71.8180  -48.5010 C.3    55  SER55       0.1889
     88  C         91.2340   72.2830  -49.9450 C.2    55  SER55       0.2288
     89  O         91.8450   71.6340  -50.7910 O.2    55  SER55      -0.2866
     90  CB        92.0860   72.7740  -47.6860 C.3    55  SER55       0.2089
     91  OG        93.2160   73.2170  -48.4310 O.3    55  SER55      -0.2183
     92  N         92.9530   74.3670  -51.3080 N.3    57  PHE57      -0.1227
     93  CA        94.2050   75.0880  -51.3450 C.3    57  PHE57       0.1736
     94  C         95.3080   74.0470  -51.3530 C.2    57  PHE57       0.2595
     95  O         96.0290   73.9050  -52.3270 O.2    57  PHE57      -0.2718
     96  CB        94.3080   75.9780  -50.1060 C.3    57  PHE57       0.0547
     97  CG        95.6640   76.5920  -49.9030 C.ar   57  PHE57      -0.0202
     98  CD1       96.3360   76.4330  -48.6850 C.ar   57  PHE57      -0.0042
     99  CD2       96.2700   77.3310  -50.9170 C.ar   57  PHE57      -0.0042
    100  CE1       97.5890   77.0040  -48.4790 C.ar   57  PHE57      -0.0003
    101  CE2       97.5190   77.9030  -50.7240 C.ar   57  PHE57      -0.0003
    102  CZ        98.1800   77.7400  -49.4990 C.ar   57  PHE57      -0.0000
    103  N         95.4320   73.3150  -50.2570 N.am   58  LYS58      -0.1980
    104  CA        96.4450   72.2760  -50.1450 C.3    58  LYS58       0.1596
    105  C         95.9450   71.0360  -49.4060 C.2    58  LYS58       0.2287
    106  O         95.0500   71.0990  -48.5490 O.2    58  LYS58      -0.2864
    107  CB        97.6970   72.8170  -49.4690 C.3    58  LYS58       0.0298
    108  CG        98.5990   73.6150  -50.4010 C.3    58  LYS58       0.0038
    109  CD        99.8310   74.1350  -49.6720 C.3    58  LYS58       0.0206
    110  CE       100.8020   74.8110  -50.6320 C.3    58  LYS58       0.1093
    111  NZ       101.8810   75.5370  -49.8910 N.3    58  LYS58      -0.1314
    112  N         97.6580   67.7820  -47.4430 N.3    60  THR60      -0.1218
    113  CA        98.9210   67.2820  -46.9270 C.3    60  THR60       0.1862
    114  C         98.7820   66.0280  -46.0890 C.2    60  THR60       0.2287
    115  O         98.0330   65.9820  -45.1020 O.2    60  THR60      -0.2866
    116  CB        99.6990   68.3850  -46.1360 C.3    60  THR60       0.1770
    117  OG1       98.8420   68.9810  -45.1460 O.3    60  THR60      -0.2211
    118  CG2      100.2460   69.4720  -47.0900 C.3    60  THR60       0.0375
    119  N        105.6920   71.2630  -43.5170 N.3    74  THR74      -0.1203
    120  CA       104.3850   71.8320  -43.1720 C.3    74  THR74       0.1994
    121  C        103.7270   72.5280  -44.3800 C.2    74  THR74       0.2618
    122  O        104.4220   73.0170  -45.2860 O.2    74  THR74      -0.2717
    123  CB       104.5040   72.8390  -41.9910 C.3    74  THR74       0.1784
    124  OG1      105.2220   74.0060  -42.4170 O.3    74  THR74      -0.2211
    125  CG2      105.2430   72.2200  -40.7940 C.3    74  THR74       0.0376
    126  N        102.3950   72.5550  -44.3990 N.am   75  ALA75      -0.1965
    127  CA       101.6620   73.1870  -45.4890 C.3    75  ALA75       0.1728
    128  C        102.2320   74.5830  -45.8260 C.2    75  ALA75       0.2616
    129  O        102.3710   74.9420  -47.0000 O.2    75  ALA75      -0.2715
    130  CB       100.1750   73.2850  -45.1370 C.3    75  ALA75       0.0334
    131  N        102.5420   75.3740  -44.8030 N.am   76  ASP76      -0.1971
    132  CA       103.1130   76.6950  -45.0370 C.3    76  ASP76       0.1709
    133  C        104.6290   76.6480  -45.2830 C.2    76  ASP76       0.2293
    134  O        105.3560   77.5800  -44.9400 O.2    76  ASP76      -0.2864
    135  CB       102.7950   77.6420  -43.8940 C.3    76  ASP76       0.1436
    136  CG       103.2100   77.0990  -42.5620 C.2    76  ASP76       0.3671
    137  OD1      103.3840   77.8960  -41.6310 O.co2  76  ASP76      -0.2456
    138  OD2      103.3410   75.8690  -42.4250 O.co2  76  ASP76      -0.2456
    139  N        107.3300   75.3440  -43.8560 N.3    78  ARG78      -0.1245
    140  CA       108.4120   75.0850  -42.9040 C.3    78  ARG78       0.1563
    141  C        108.7740   73.5840  -42.9730 C.2    78  ARG78       0.2260
    142  O        107.9260   72.7480  -43.2750 O.2    78  ARG78      -0.2867
    143  CB       107.9970   75.4340  -41.4660 C.3    78  ARG78       0.0307
    144  CG       107.4150   76.8150  -41.2810 C.3    78  ARG78       0.0489
    145  CD       106.0810   76.7330  -40.5810 C.3    78  ARG78       0.2205
    146  NE       106.2210   76.1030  -39.2730 N.pl3  78  ARG78      -0.0865
    147  CZ       105.3380   75.2830  -38.6970 C.cat  78  ARG78       0.5346
    148  NH1      104.1910   74.9490  -39.2890 N.pl3  78  ARG78       0.1354
    149  NH2      105.6220   74.7860  -37.4960 N.pl3  78  ARG78       0.1354
    150  N        106.2850   70.0250  -33.4260 N.3    95  GLN95      -0.1245
    151  CA       106.9930   70.4110  -34.6590 C.3    95  GLN95       0.1566
    152  C        108.1800   71.3190  -34.3310 C.2    95  GLN95       0.2260
    153  O        107.9910   72.4210  -33.8030 O.2    95  GLN95      -0.2867
    154  CB       106.0860   71.2140  -35.6060 C.3    95  GLN95       0.0367
    155  CG       105.0380   70.4590  -36.3880 C.3    95  GLN95       0.0905
    156  CD       104.3220   71.3650  -37.3530 C.2    95  GLN95       0.2608
    157  OE1      103.7230   70.9060  -38.3250 O.2    95  GLN95      -0.2717
    158  NE2      104.3720   72.6630  -37.0960 N.am   95  GLN95      -0.0878
    159  N        100.6130   70.7990  -31.2810 N.3   104  PHE104     -0.1241
    160  CA        99.1800   70.6030  -31.5640 C.3   104  PHE104      0.1605
    161  C         98.5860   69.4640  -30.7140 C.2   104  PHE104      0.2264
    162  O         98.8510   68.2670  -30.9530 O.2   104  PHE104     -0.2867
    163  CB        98.9600   70.2360  -33.0430 C.3   104  PHE104      0.0534
    164  CG        99.6510   71.1410  -34.0140 C.ar  104  PHE104     -0.0203
    165  CD1       99.5700   72.5270  -33.8830 C.ar  104  PHE104     -0.0042
    166  CD2      100.3800   70.6050  -35.0700 C.ar  104  PHE104     -0.0042
    167  CE1      100.2040   73.3590  -34.7860 C.ar  104  PHE104     -0.0003
    168  CE2      101.0190   71.4290  -35.9800 C.ar  104  PHE104     -0.0003
    169  CZ       100.9310   72.8130  -35.8390 C.ar  104  PHE104     -0.0000
    170  N         95.4580   67.4340  -30.0920 N.3   106  ARG106     -0.1245
    171  CA        94.1080   67.0670  -30.5220 C.3   106  ARG106      0.1563
    172  C         93.4040   66.1860  -29.4590 C.2   106  ARG106      0.2260
    173  O         93.9970   65.2260  -28.9660 O.2   106  ARG106     -0.2867
    174  CB        94.1560   66.3590  -31.8770 C.3   106  ARG106      0.0307
    175  CG        94.8490   67.1550  -32.9620 C.3   106  ARG106      0.0489
    176  CD        94.6170   66.5980  -34.3740 C.3   106  ARG106      0.2205
    177  NE        95.8600   66.6990  -35.1320 N.pl3 106  ARG106     -0.0865
    178  CZ        95.9860   67.2020  -36.3540 C.cat 106  ARG106      0.5346
    179  NH1       94.9230   67.6720  -37.0100 N.pl3 106  ARG106      0.1354
    180  NH2       97.2040   67.2420  -36.9130 N.pl3 106  ARG106      0.1354
    181  N         91.2210   70.6420  -31.5230 N.3   115  MET115     -0.1245
    182  CA        92.6530   70.7790  -31.6470 C.3   115  MET115      0.1570
    183  C         92.9590   72.1200  -31.0140 C.2   115  MET115      0.2261
    184  O         92.1500   73.0390  -31.0880 O.2   115  MET115     -0.2867
    185  CB        93.0430   70.7640  -33.1350 C.3   115  MET115      0.0387
    186  CG        94.4970   71.0680  -33.4040 C.3   115  MET115      0.0595
    187  SD        95.1190   70.6460  -35.0580 S.3   115  MET115     -0.1393
    188  CE        94.1480   71.7720  -36.0460 C.3   115  MET115      0.0692
    189  N         96.0680   74.6610  -31.1380 N.3   117  LEU117     -0.1245
    190  CA        97.3820   75.0720  -31.6590 C.3   117  LEU117      0.1561
    191  C         98.0000   76.0770  -30.7010 C.2   117  LEU117      0.2260
    192  O         97.3180   77.0060  -30.2350 O.2   117  LEU117     -0.2867
    193  CB        97.2540   75.7530  -33.0350 C.3   117  LEU117      0.0270
    194  CG        96.3420   75.2970  -34.1850 C.3   117  LEU117      0.0019
    195  CD1       96.6790   73.9170  -34.6540 C.3   117  LEU117      0.0001
    196  CD2       94.8960   75.3420  -33.7680 C.3   117  LEU117      0.0001
    197  N         90.6190   74.8730  -32.5220 N.3   126  ARG126     -0.1245
    198  CA        89.8290   74.4430  -33.6630 C.3   126  ARG126      0.1563
    199  C         88.8280   73.3640  -33.2670 C.2   126  ARG126      0.2260
    200  O         89.0660   72.6040  -32.3130 O.2   126  ARG126     -0.2867
    201  CB        90.7670   73.8950  -34.7430 C.3   126  ARG126      0.0307
    202  CG        91.9930   74.7640  -35.0290 C.3   126  ARG126      0.0489
    203  CD        91.7710   75.7360  -36.1760 C.3   126  ARG126      0.2205
    204  NE        91.5500   75.0070  -37.4160 N.pl3 126  ARG126     -0.0865
    205  CZ        91.6690   75.5230  -38.6340 C.cat 126  ARG126      0.5346
    206  NH1       92.0070   76.8010  -38.8080 N.pl3 126  ARG126      0.1354
    207  NH2       91.4770   74.7390  -39.6850 N.pl3 126  ARG126      0.1354
    208  N         86.0850   70.1890  -34.7540 N.3   128  TYR128     -0.1241
    209  CA        85.8270   69.2550  -35.8330 C.3   128  TYR128      0.1605
    210  C         84.6090   68.3810  -35.5690 C.2   128  TYR128      0.2264
    211  O         84.3970   67.9420  -34.4390 O.2   128  TYR128     -0.2867
    212  CB        87.0780   68.3890  -36.0440 C.3   128  TYR128      0.0534
    213  CG        88.2550   69.1590  -36.6320 C.ar  128  TYR128     -0.0201
    214  CD1       88.3870   69.3090  -38.0080 C.ar  128  TYR128     -0.0009
    215  CD2       89.2070   69.7720  -35.8140 C.ar  128  TYR128     -0.0009
    216  CE1       89.4270   70.0460  -38.5510 C.ar  128  TYR128      0.0417
    217  CE2       90.2510   70.5160  -36.3520 C.ar  128  TYR128      0.0417
    218  CZ        90.3580   70.6480  -37.7200 C.ar  128  TYR128      0.1957
    219  OH        91.3970   71.3760  -38.2720 O.3   128  TYR128     -0.2866
@<TRIPOS>BOND
     1    95    94    2
     2    94    93    1
     3    94   103   am
     4    93    92    1
     5    93    96    1
     6    99   101   ar
     7    99    97   ar
     8    89    88    2
     9   101   102   ar
    10   110   111    1
    11   110   109    1
    12   108   109    1
    13   108   107    1
    14   103   104    1
    15   104   107    1
    16   104   105    1
    17    96    97    1
    18    88    87    1
    19    97    98   ar
    20   102   100   ar
    21   105   106    2
    22    98   100   ar
    23    87    86    1
    24    87    90    1
    25    91    90    1
    26    47    48    1
    27    52    51    1
    28   112   113    1
    29    63    62    1
    30    48    51    1
    31    48    49    1
    32   118   116    1
    33   129   128    2
    34    82    81    2
    35   113   116    1
    36   113   114    1
    37    51    53    1
    38    62    59    1
    39    62    64    1
    40   116   117    1
    41   114   115    2
    42    81    80    1
    43    49    50    2
    44    59    58    1
    45    59    60    1
    46   128   127    1
    47   128   131   am
    48    54    55    1
    49   127   130    1
    50   127   126    1
    51   122   121    2
    52   133   132    1
    53   133   134    2
    54   132   131    1
    55   132   135    1
    56    79    80    1
    57    80    83    1
    58    60    61    2
    59   126   121   am
    60   121   120    1
    61    55    56    1
    62    66    69    1
    63    66    65    1
    64    66    67    1
    65    83    85    1
    66    83    84    1
    67    69    70    1
    68   135   136    1
    69   139   140    1
    70    65    71    1
    71    67    68    2
    72   119   120    1
    73    56    57    2
    74   142   141    2
    75    45    44    1
    76   120   123    1
    77    42    43    2
    78    42    41    1
    79   141   140    1
    80   140   143    1
    81    71    70    1
    82   136   138   ar
    83   136   137   ar
    84   124   123    1
    85    41    44    1
    86    41    40    1
    87    72    73    1
    88   123   125    1
    89    44    46    1
    90    73    74    1
    91    73    76    1
    92   143   144    1
    93    74    75    2
    94    30    31    1
    95    30    29    1
    96   144   145    1
    97   145   146    1
    98    78    76    1
    99    76    77    1
   100    29    28    1
   101   207   205    1
   102    10     8   ar
   103    10    11   ar
   104   148   147    1
   105   146   147    2
   106    28    25    1
   107     8     6   ar
   108   206   205    1
   109    11     9   ar
   110   147   149    1
   111    27    26    2
   112   205   204    2
   113   216   214   ar
   114   216   218   ar
   115    35    34    2
   116   157   156    2
   117   219   218    1
   118    26    25    1
   119    25    24    1
   120   214   213   ar
   121    34    33    1
   122   218   217   ar
   123   204   203    1
   124     6     5    1
   125     6     7   ar
   126    36    37    1
   127    36    33    1
   128   156   158   am
   129   156   155    1
   130     9     7   ar
   131   179   178    1
   132    39    37    1
   133   180   178    1
   134    37    38    1
   135    33    32    1
   136    24    14   am
   137     5     2    1
   138     4     3    2
   139   213   212    1
   140   213   215   ar
   141     3     2    1
   142   155   154    1
   143   178   177    2
   144   217   215   ar
   145   203   202    1
   146   188   187    1
   147   212   209    1
   148   168   169   ar
   149   168   166   ar
   150   169   167   ar
   151   209   210    1
   152   209   208    1
   153     2     1    1
   154    15    14    2
   155    14    13    1
   156   154   151    1
   157   210   211    2
   158    20    18   ar
   159    20    22   ar
   160    18    17   ar
   161   177   176    1
   162   166   164   ar
   163   187   186    1
   164   202   201    1
   165   167   165   ar
   166   201   198    1
   167   151   152    1
   168   151   150    1
   169   195   194    1
   170    12    13    1
   171    13    16    1
   172   176   175    1
   173   152   153    2
   174    23    22    1
   175    22    21   ar
   176   194   196    1
   177   194   193    1
   178    17    16    1
   179    17    19   ar
   180   164   165   ar
   181   164   163    1
   182   198   199    1
   183   198   197    1
   184   186   185    1
   185   199   200    2
   186   185   182    1
   187   163   160    1
   188   193   190    1
   189    21    19   ar
   190   175   174    1
   191   174   171    1
   192   190   189    1
   193   190   191    1
   194   182   181    1
   195   182   183    1
   196   160   159    1
   197   160   161    1
   198   184   183    2
   199   162   161    2
   200   191   192    2
   201   171   170    1
   202   171   172    1
   203   172   173    2
