@<TRIPOS>MOLECULE
tmp/1femA00.pdb
 230 220 0 0 0
SMALL
GASTEIGER

@<TRIPOS>ATOM
      1  N         32.9390   19.9720   59.1660 N.3    35  LEU35      -0.1231
      2  CA        33.9480   20.2670   58.1690 C.3    35  LEU35       0.1693
      3  C         33.2960   20.5940   56.8470 C.2    35  LEU35       0.2592
      4  O         32.4500   19.8300   56.3840 O.2    35  LEU35      -0.2718
      5  CB        34.8510   19.0470   57.8900 C.3    35  LEU35       0.0284
      6  CG        35.8440   18.7990   59.0180 C.3    35  LEU35       0.0019
      7  CD1       36.6200   17.5160   58.7410 C.3    35  LEU35       0.0001
      8  CD2       36.8060   19.9770   59.1380 C.3    35  LEU35       0.0001
      9  N         33.6980   21.7070   56.2480 N.am   36  PHE36      -0.1962
     10  CA        33.1410   22.0960   54.9730 C.3    36  PHE36       0.1771
     11  C         34.2090   22.8330   54.1850 C.2    36  PHE36       0.2619
     12  O         35.2900   23.0440   54.7250 O.2    36  PHE36      -0.2715
     13  CB        31.8800   22.9330   55.2110 C.3    36  PHE36       0.0574
     14  CG        31.0270   23.0510   53.9810 C.ar   36  PHE36      -0.0200
     15  CD1       30.2960   21.9650   53.5040 C.ar   36  PHE36      -0.0042
     16  CD2       30.9540   24.2560   53.2830 C.ar   36  PHE36      -0.0042
     17  CE1       29.5050   22.0720   52.3590 C.ar   36  PHE36      -0.0003
     18  CE2       30.1580   24.3890   52.1450 C.ar   36  PHE36      -0.0003
     19  CZ        29.4370   23.2890   51.6810 C.ar   36  PHE36      -0.0000
     20  N         33.9380   23.2160   52.9270 N.am   37  LEU37      -0.1977
     21  CA        34.9490   23.9200   52.1550 C.3    37  LEU37       0.1596
     22  C         35.1370   25.3170   52.7220 C.2    37  LEU37       0.2287
     23  O         34.1540   25.9880   53.0260 O.2    37  LEU37      -0.2864
     24  CB        34.5280   24.0940   50.6980 C.3    37  LEU37       0.0297
     25  CG        34.7450   22.9100   49.7680 C.3    37  LEU37       0.0022
     26  CD1       33.7790   23.0310   48.5980 C.3    37  LEU37       0.0001
     27  CD2       36.1650   22.9830   49.2070 C.3    37  LEU37       0.0001
     28  N         36.8060   28.4750   46.5590 N.3    41  ILE41      -0.1245
     29  CA        36.0170   27.4700   45.8570 C.3    41  ILE41       0.1561
     30  C         35.6770   27.7270   44.3920 C.2    41  ILE41       0.2260
     31  O         35.1980   28.7820   43.9590 O.2    41  ILE41      -0.2867
     32  CB        34.7630   27.1170   46.6330 C.3    41  ILE41       0.0252
     33  CG1       35.0800   26.6410   48.0510 C.3    41  ILE41       0.0019
     34  CG2       33.9270   26.0970   45.8830 C.3    41  ILE41       0.0019
     35  CD1       34.1680   27.3000   49.0770 C.3    41  ILE41       0.0001
     36  N         33.8650   25.5060   41.0550 N.3    43  ALA43      -0.1245
     37  CA        33.3420   24.2420   40.5570 C.3    43  ALA43       0.1562
     38  C         33.3690   24.2120   39.0660 C.2    43  ALA43       0.2260
     39  O         33.3290   25.2240   38.3720 O.2    43  ALA43      -0.2867
     40  CB        31.9160   23.9640   40.9950 C.3    43  ALA43       0.0290
     41  N         31.5210   22.0710   36.0630 N.3    45  PHE45      -0.1241
     42  CA        30.4980   21.1520   35.5750 C.3    45  PHE45       0.1605
     43  C         30.5930   20.6010   34.1860 C.2    45  PHE45       0.2264
     44  O         30.8360   21.3260   33.2260 O.2    45  PHE45      -0.2867
     45  CB        29.0450   21.6120   35.8440 C.3    45  PHE45       0.0534
     46  CG        28.6910   21.8020   37.2970 C.ar   45  PHE45      -0.0203
     47  CD1       29.3350   22.7780   38.0570 C.ar   45  PHE45      -0.0042
     48  CD2       27.7090   21.0040   37.8950 C.ar   45  PHE45      -0.0042
     49  CE1       29.0080   22.9440   39.4010 C.ar   45  PHE45      -0.0003
     50  CE2       27.3550   21.1620   39.2350 C.ar   45  PHE45      -0.0003
     51  CZ        28.0200   22.1370   39.9720 C.ar   45  PHE45      -0.0000
     52  N         31.0650   16.8510   38.1000 N.3    55  ALA55      -0.1231
     53  CA        31.7160   18.1010   38.4660 C.3    55  ALA55       0.1694
     54  C         32.9900   17.8380   39.2390 C.2    55  ALA55       0.2593
     55  O         33.1150   16.7730   39.8470 O.2    55  ALA55      -0.2718
     56  CB        30.8490   18.9610   39.3880 C.3    55  ALA55       0.0304
     57  N         33.8940   18.8280   39.2140 N.am   56  THR56      -0.1939
     58  CA        35.1780   18.8320   39.9150 C.3    56  THR56       0.2028
     59  C         35.1360   20.1560   40.6580 C.2    56  THR56       0.2642
     60  O         34.5110   21.0950   40.1670 O.2    56  THR56      -0.2714
     61  CB        36.4320   18.8930   39.0220 C.3    56  THR56       0.1808
     62  OG1       36.1820   19.8000   37.9720 O.3    56  THR56      -0.2208
     63  CG2       36.9130   17.5440   38.4960 C.3    56  THR56       0.0379
     64  N         35.7850   20.2480   41.8060 N.am   57  ALA57      -0.1977
     65  CA        35.7680   21.4870   42.5480 C.3    57  ALA57       0.1597
     66  C         37.0200   21.5090   43.3910 C.2    57  ALA57       0.2287
     67  O         37.4690   20.4500   43.8360 O.2    57  ALA57      -0.2864
     68  CB        34.5030   21.4790   43.3850 C.3    57  ALA57       0.0319
     69  N         40.5820   23.6640   52.4590 N.3    61  VAL61      -0.1245
     70  CA        39.9030   23.0150   53.5560 C.3    61  VAL61       0.1561
     71  C         40.8640   23.0810   54.7330 C.2    61  VAL61       0.2260
     72  O         42.0490   22.7950   54.5570 O.2    61  VAL61      -0.2867
     73  CB        39.3640   21.5920   53.3030 C.3    61  VAL61       0.0252
     74  CG1       38.5550   21.1890   54.5320 C.3    61  VAL61       0.0019
     75  CG2       38.5040   21.4040   52.0650 C.3    61  VAL61       0.0019
     76  N         42.0630   21.5070   57.9480 N.3    63  LEU63      -0.1245
     77  CA        42.0420   20.2540   58.6650 C.3    63  LEU63       0.1561
     78  C         42.1300   20.4660   60.1710 C.2    63  LEU63       0.2260
     79  O         42.9050   21.3010   60.6340 O.2    63  LEU63      -0.2867
     80  CB        43.2110   19.3920   58.1740 C.3    63  LEU63       0.0270
     81  CG        42.7390   18.4490   57.0860 C.3    63  LEU63       0.0019
     82  CD1       42.0150   17.2830   57.7490 C.3    63  LEU63       0.0001
     83  CD2       41.7760   19.1790   56.1600 C.3    63  LEU63       0.0001
     84  N         41.7530   20.9520   48.7570 N.3    71  ALA71      -0.1245
     85  CA        40.9650   19.7800   48.3910 C.3    71  ALA71       0.1562
     86  C         40.4900   19.7470   46.9580 C.2    71  ALA71       0.2260
     87  O         39.8050   20.6610   46.5200 O.2    71  ALA71      -0.2867
     88  CB        39.7610   19.5930   49.3100 C.3    71  ALA71       0.0290
     89  N         38.0460   17.8890   44.7400 N.3    73  MET73      -0.1230
     90  CA        36.9200   16.9720   44.8510 C.3    73  MET73       0.1702
     91  C         36.2890   16.5050   43.5530 C.2    73  MET73       0.2592
     92  O         36.5220   17.1310   42.5290 O.2    73  MET73      -0.2718
     93  CB        35.7710   17.6810   45.5850 C.3    73  MET73       0.0401
     94  CG        36.1960   18.2720   46.9040 C.3    73  MET73       0.0596
     95  SD        36.7270   16.9360   47.9990 S.3    73  MET73      -0.1393
     96  CE        35.0920   16.2510   48.3750 C.3    73  MET73       0.0692
     97  N         35.4850   15.4300   43.6560 N.am   74  VAL74      -0.1966
     98  CA        34.7450   14.8090   42.5620 C.3    74  VAL74       0.1727
     99  C         33.2910   14.5660   42.9220 C.2    74  VAL74       0.2616
    100  O         32.9390   14.1640   44.0480 O.2    74  VAL74      -0.2715
    101  CB        35.3810   13.5940   41.8890 C.3    74  VAL74       0.0290
    102  CG1       34.9550   13.5320   40.4190 C.3    74  VAL74       0.0023
    103  CG2       36.9000   13.6710   41.9270 C.3    74  VAL74       0.0023
    104  N         32.4370   14.8340   41.9300 N.am   75  GLY75      -0.1955
    105  CA        31.0100   14.6520   42.0940 C.3    75  GLY75       0.1869
    106  C         30.3660   14.0940   40.8340 C.2    75  GLY75       0.2309
    107  O         30.7670   14.4610   39.7320 O.2    75  GLY75      -0.2863
    108  N         26.3660   13.2130   39.3560 N.3    77  PHE77      -0.1241
    109  CA        24.9660   13.5060   39.6210 C.3    77  PHE77       0.1605
    110  C         23.9970   12.5230   38.9900 C.2    77  PHE77       0.2264
    111  O         24.2170   12.0520   37.8740 O.2    77  PHE77      -0.2867
    112  CB        24.6130   14.9690   39.2590 C.3    77  PHE77       0.0534
    113  CG        25.4340   16.0120   39.9790 C.ar   77  PHE77      -0.0203
    114  CD1       26.6760   16.4320   39.4980 C.ar   77  PHE77      -0.0042
    115  CD2       24.9500   16.5800   41.1570 C.ar   77  PHE77      -0.0042
    116  CE1       27.4070   17.3980   40.1960 C.ar   77  PHE77      -0.0003
    117  CE2       25.6670   17.5380   41.8760 C.ar   77  PHE77      -0.0003
    118  CZ        26.9080   17.9370   41.3860 C.ar   77  PHE77      -0.0000
    119  N         23.7380   13.5470   44.6000 N.3    88  MET88      -0.1245
    120  CA        25.1570   13.6850   44.3140 C.3    88  MET88       0.1570
    121  C         26.1430   12.9200   45.2050 C.2    88  MET88       0.2261
    122  O         26.2530   13.1840   46.4040 O.2    88  MET88      -0.2867
    123  CB        25.5940   15.1600   44.2260 C.3    88  MET88       0.0387
    124  CG        27.0970   15.3340   44.0820 C.3    88  MET88       0.0595
    125  SD        27.7000   17.0380   44.2820 S.3    88  MET88      -0.1393
    126  CE        27.9560   16.9190   46.0730 C.3    88  MET88       0.0692
    127  N         29.8970   12.1510   45.9760 N.3    90  TYR90      -0.1241
    128  CA        31.1400   12.8710   45.8420 C.3    90  TYR90       0.1605
    129  C         32.2550   12.2240   46.6350 C.2    90  TYR90       0.2264
    130  O         32.0110   11.4390   47.5580 O.2    90  TYR90      -0.2867
    131  CB        30.9080   14.3480   46.2910 C.3    90  TYR90       0.0534
    132  CG        30.4870   14.6020   47.7530 C.ar   90  TYR90      -0.0201
    133  CD1       29.1610   14.5530   48.2030 C.ar   90  TYR90      -0.0009
    134  CD2       31.4490   14.9040   48.7230 C.ar   90  TYR90      -0.0009
    135  CE1       28.8110   14.8010   49.5340 C.ar   90  TYR90       0.0417
    136  CE2       31.1270   15.1410   50.0580 C.ar   90  TYR90       0.0417
    137  CZ        29.7970   15.0900   50.4810 C.ar   90  TYR90       0.1957
    138  OH        29.5310   15.3640   51.7970 O.3    90  TYR90      -0.2866
    139  N         41.7400   11.1010   52.5740 N.3    96  PHE96      -0.1227
    140  CA        41.2400   11.7270   53.7880 C.3    96  PHE96       0.1736
    141  C         40.1030   12.7390   53.5730 C.2    96  PHE96       0.2595
    142  O         39.6440   13.3940   54.5090 O.2    96  PHE96      -0.2718
    143  CB        42.4460   12.3160   54.5540 C.3    96  PHE96       0.0547
    144  CG        43.2110   13.3570   53.7730 C.ar   96  PHE96      -0.0202
    145  CD1       42.7600   14.6750   53.8070 C.ar   96  PHE96      -0.0042
    146  CD2       44.3560   13.0860   53.0220 C.ar   96  PHE96      -0.0042
    147  CE1       43.4000   15.7030   53.1120 C.ar   96  PHE96      -0.0003
    148  CE2       45.0230   14.1000   52.3300 C.ar   96  PHE96      -0.0003
    149  CZ        44.5440   15.4110   52.3660 C.ar   96  PHE96      -0.0000
    150  N         39.6180   12.8900   52.3360 N.am   97  LEU97      -0.1966
    151  CA        38.5600   13.8470   52.0290 C.3    97  LEU97       0.1728
    152  C         37.1500   13.3190   52.2020 C.2    97  LEU97       0.2616
    153  O         36.8800   12.1880   51.8190 O.2    97  LEU97      -0.2715
    154  CB        38.7290   14.4900   50.6260 C.3    97  LEU97       0.0311
    155  CG        39.8620   15.4790   50.3690 C.3    97  LEU97       0.0022
    156  CD1       40.9050   15.5580   51.4830 C.3    97  LEU97       0.0001
    157  CD2       40.5340   15.3170   49.0090 C.3    97  LEU97       0.0001
    158  N         36.2660   14.1450   52.7690 N.am   98  GLN98      -0.1977
    159  CA        34.8680   13.8240   53.0240 C.3    98  GLN98       0.1601
    160  C         34.2730   13.1660   51.7950 C.2    98  GLN98       0.2287
    161  O         34.4100   13.6990   50.6950 O.2    98  GLN98      -0.2864
    162  CB        34.0690   15.1010   53.3090 C.3    98  GLN98       0.0394
    163  CG        32.6900   14.9790   53.9800 C.3    98  GLN98       0.0908
    164  CD        32.2190   16.3020   54.5610 C.2    98  GLN98       0.2608
    165  OE1       32.8980   16.8970   55.4170 O.2    98  GLN98      -0.2717
    166  NE2       31.0900   16.7860   54.0450 N.am   98  GLN98      -0.0878
    167  N         21.1720   17.6580   45.6310 N.3   104  HIS104     -0.1241
    168  CA        21.7400   18.8280   44.9830 C.3   104  HIS104      0.1621
    169  C         20.6440   19.4730   44.1780 C.2   104  HIS104      0.2264
    170  O         20.2050   18.9890   43.1390 O.2   104  HIS104     -0.2867
    171  CB        22.9160   18.4940   44.0600 C.3   104  HIS104      0.0745
    172  CG        23.7170   19.6460   43.5060 C.ar  104  HIS104      0.0817
    173  ND1       24.9190   20.0200   44.0660 N.ar  104  HIS104     -0.2268
    174  CD2       23.5150   20.4600   42.4330 C.ar  104  HIS104      0.1154
    175  CE1       25.4080   21.0230   43.3570 C.ar  104  HIS104      0.1986
    176  NE2       24.5890   21.3190   42.3650 N.ar  104  HIS104     -0.2212
    177  N         22.4340   27.1390   44.4850 N.3   117  GLN117     -0.1245
    178  CA        22.3360   25.7130   44.7010 C.3   117  GLN117      0.1566
    179  C         21.9070   25.5150   46.1600 C.2   117  GLN117      0.2260
    180  O         21.9790   26.4440   46.9760 O.2   117  GLN117     -0.2867
    181  CB        23.6720   24.9900   44.4180 C.3   117  GLN117      0.0367
    182  CG        23.7010   23.5500   44.9850 C.3   117  GLN117      0.0905
    183  CD        24.2900   23.4600   46.3750 C.2   117  GLN117      0.2608
    184  OE1       24.7670   24.4700   46.9140 O.2   117  GLN117     -0.2717
    185  NE2       24.3150   22.2560   46.9570 N.am  117  GLN117     -0.0878
    186  N         20.6340   18.0650   54.4110 N.3   121  ARG121     -0.1245
    187  CA        21.1710   16.7300   54.6220 C.3   121  ARG121      0.1563
    188  C         20.4610   16.0500   55.7750 C.2   121  ARG121      0.2260
    189  O         20.8320   14.9440   56.1610 O.2   121  ARG121     -0.2867
    190  CB        22.6660   16.6170   54.9020 C.3   121  ARG121      0.0307
    191  CG        23.5480   17.7490   54.4150 C.3   121  ARG121      0.0489
    192  CD        24.9170   17.2800   53.9420 C.3   121  ARG121      0.2205
    193  NE        25.9830   17.8350   54.7570 N.pl3 121  ARG121     -0.0865
    194  CZ        27.2230   18.0620   54.3330 C.cat 121  ARG121      0.5346
    195  NH1       27.5580   17.7820   53.0770 N.pl3 121  ARG121      0.1354
    196  NH2       28.1490   18.5750   55.1310 N.pl3 121  ARG121      0.1354
    197  N         22.8910   23.6130   53.3270 N.3   133  TYR133     -0.1241
    198  CA        24.0070   24.2560   52.6910 C.3   133  TYR133      0.1605
    199  C         23.5860   24.8600   51.3820 C.2   133  TYR133      0.2264
    200  O         22.6680   24.3860   50.7290 O.2   133  TYR133     -0.2867
    201  CB        25.4480   23.7530   52.8790 C.3   133  TYR133      0.0534
    202  CG        25.7610   22.5730   52.0200 C.ar  133  TYR133     -0.0201
    203  CD1       26.0040   22.8230   50.6720 C.ar  133  TYR133     -0.0009
    204  CD2       25.7890   21.2580   52.4900 C.ar  133  TYR133     -0.0009
    205  CE1       26.3040   21.7850   49.7960 C.ar  133  TYR133      0.0417
    206  CE2       26.0800   20.2030   51.6290 C.ar  133  TYR133      0.0417
    207  CZ        26.3430   20.4810   50.2850 C.ar  133  TYR133      0.1957
    208  OH        26.6320   19.5040   49.3720 O.3   133  TYR133     -0.2866
    209  N         25.1060   27.2090   47.8910 N.3   135  PHE135     -0.1241
    210  CA        26.1510   27.9130   47.2090 C.3   135  PHE135      0.1605
    211  C         25.5370   28.9240   46.2680 C.2   135  PHE135      0.2264
    212  O         24.5520   28.6520   45.5850 O.2   135  PHE135     -0.2867
    213  CB        27.0800   27.0040   46.3780 C.3   135  PHE135      0.0534
    214  CG        28.1870   26.3920   47.2060 C.ar  135  PHE135     -0.0203
    215  CD1       29.3540   27.0650   47.5640 C.ar  135  PHE135     -0.0042
    216  CD2       28.0560   25.0780   47.6460 C.ar  135  PHE135     -0.0042
    217  CE1       30.3680   26.4740   48.3220 C.ar  135  PHE135     -0.0003
    218  CE2       29.0530   24.4710   48.4060 C.ar  135  PHE135     -0.0003
    219  CZ        30.2150   25.1590   48.7530 C.ar  135  PHE135     -0.0000
    220  N         26.6070   30.8130   43.1150 N.3   137  PHE137     -0.1241
    221  CA        27.6960   30.7920   42.1650 C.3   137  PHE137      0.1605
    222  C         27.6270   31.9050   41.1190 C.2   137  PHE137      0.2264
    223  O         26.5580   32.4260   40.7820 O.2   137  PHE137     -0.2867
    224  CB        27.7320   29.4270   41.4590 C.3   137  PHE137      0.0534
    225  CG        28.1860   28.2020   42.2240 C.ar  137  PHE137     -0.0203
    226  CD1       29.5300   27.9670   42.5190 C.ar  137  PHE137     -0.0042
    227  CD2       27.2680   27.2190   42.5940 C.ar  137  PHE137     -0.0042
    228  CE1       29.9460   26.8110   43.1850 C.ar  137  PHE137     -0.0003
    229  CE2       27.6620   26.0600   43.2640 C.ar  137  PHE137     -0.0003
    230  CZ        29.0090   25.8520   43.5660 C.ar  137  PHE137     -0.0000
@<TRIPOS>BOND
     1    44    43    2
     2    43    42    1
     3    42    45    1
     4    42    41    1
     5    45    46    1
     6    46    48   ar
     7    46    47   ar
     8   111   110    2
     9    48    50   ar
    10    62    61    1
    11    47    49   ar
    12    52    53    1
    13    39    38    2
    14    53    54    1
    15    53    56    1
    16    63    61    1
    17   110   109    1
    18    61    58    1
    19    38    37    1
    20    57    54   am
    21    57    58    1
    22    50    51   ar
    23    54    55    2
    24   112   109    1
    25   112   113    1
    26   108   109    1
    27    49    51   ar
    28   114   113   ar
    29   114   116   ar
    30   107   106    2
    31    58    59    1
    32   113   115   ar
    33    60    59    2
    34   116   118   ar
    35   102   101    1
    36    37    40    1
    37    37    36    1
    38    59    64   am
    39   223   222    2
    40   106   105    1
    41   222   221    1
    42   115   117   ar
    43   118   117   ar
    44   224   221    1
    45   224   225    1
    46    64    65    1
    47   101   103    1
    48   101    98    1
    49   104   105    1
    50   104    99   am
    51   221   220    1
    52   225   226   ar
    53   225   227   ar
    54   176   174   ar
    55   176   175   ar
    56   174   172   ar
    57   226   228   ar
    58    92    91    2
    59    65    68    1
    60    65    66    1
    61    98    99    1
    62    98    97    1
    63   227   229   ar
    64    99   100    2
    65   170   169    2
    66   228   230   ar
    67   229   230   ar
    68   175   173   ar
    69    66    67    2
    70   172   171    1
    71   172   173   ar
    72    91    97   am
    73    91    90    1
    74    31    30    2
    75   171   168    1
    76   124   123    1
    77   124   125    1
    78   169   168    1
    79   123   120    1
    80   125   126    1
    81   120   119    1
    82   120   121    1
    83    30    29    1
    84   181   178    1
    85   181   182    1
    86   177   178    1
    87   178   179    1
    88    89    90    1
    89    90    93    1
    90   168   167    1
    91   182   183    1
    92   121   122    2
    93   212   211    2
    94    93    94    1
    95   128   127    1
    96   128   131    1
    97   128   129    1
    98    29    28    1
    99    29    32    1
   100    34    32    1
   101   179   180    2
   102   211   210    1
   103   131   132    1
   104   183   184    2
   105   183   185   am
   106   213   214    1
   107   213   210    1
   108    87    86    2
   109    32    33    1
   110   129   130    2
   111    94    95    1
   112    86    85    1
   113   214   215   ar
   114   214   216   ar
   115   210   209    1
   116   215   217   ar
   117   216   218   ar
   118   132   133   ar
   119   132   134   ar
   120    95    96    1
   121    33    35    1
   122   133   135   ar
   123   217   219   ar
   124    85    84    1
   125    85    88    1
   126   218   219   ar
   127    26    25    1
   128   134   136   ar
   129   157   155    1
   130    27    25    1
   131   208   207    1
   132   135   137   ar
   133    25    24    1
   134   205   207   ar
   135   205   203   ar
   136   136   137   ar
   137   207   206   ar
   138   155   154    1
   139   155   156    1
   140   137   138    1
   141   154   151    1
   142   203   202   ar
   143   161   160    2
   144    24    21    1
   145   200   199    2
   146   199   198    1
   147   206   204   ar
   148    19    18   ar
   149    19    17   ar
   150   160   159    1
   151   153   152    2
   152   202   204   ar
   153   202   201    1
   154   151   152    1
   155   151   150    1
   156    75    73    1
   157    18    16   ar
   158    21    22    1
   159    21    20    1
   160   152   158   am
   161   148   149   ar
   162   148   146   ar
   163   150   141   am
   164    17    15   ar
   165   149   147   ar
   166    69    70    1
   167   139   140    1
   168   198   201    1
   169   198   197    1
   170    22    23    2
   171   158   159    1
   172    20    11   am
   173   146   144   ar
   174   159   162    1
   175   195   194    1
   176   147   145   ar
   177    16    14   ar
   178    73    70    1
   179    73    74    1
   180   162   163    1
   181    15    14   ar
   182    70    71    1
   183   141   140    1
   184   141   142    2
   185   144   145   ar
   186   144   143    1
   187   140   143    1
   188   192   191    1
   189   192   193    1
   190   163   164    1
   191    14    13    1
   192   166   164   am
   193    11    12    2
   194    11    10    1
   195   194   193    2
   196   194   196    1
   197   186   187    1
   198   191   190    1
   199    72    71    2
   200   164   165    2
   201   187   190    1
   202   187   188    1
   203    10    13    1
   204    10     9    1
   205   188   189    2
   206    83    81    1
   207     9     3   am
   208     4     3    2
   209     3     2    1
   210    81    82    1
   211    81    80    1
   212     5     2    1
   213     5     6    1
   214    76    77    1
   215     2     1    1
   216    80    77    1
   217    77    78    1
   218     7     6    1
   219     6     8    1
   220    78    79    2
