@<TRIPOS>MOLECULE
tmp/1ffqA01.pdb
 158 156 0 0 0
SMALL
GASTEIGER

@<TRIPOS>ATOM
      1  N         22.2710   37.0300   17.3850 N.3   140  TYR140     -0.1298
      2  CA        23.5510   37.2140   16.6920 C.3   140  TYR140      0.1290
      3  C         23.2130   37.8120   15.3130 C.3   140  TYR140      0.2013
      4  O         22.3560   37.1720   14.6730 O.3   140  TYR140     -0.2188
      5  CB        24.2490   35.8540   16.5000 C.3   140  TYR140      0.0480
      6  CG        24.9950   35.3970   17.7470 C.ar  140  TYR140     -0.0204
      7  CD1       24.2940   34.9370   18.8620 C.ar  140  TYR140     -0.0009
      8  CD2       26.3670   35.4560   17.8000 C.ar  140  TYR140     -0.0009
      9  CE1       25.0040   34.5340   19.9880 C.ar  140  TYR140      0.0417
     10  CE2       27.0970   35.0630   18.9140 C.ar  140  TYR140      0.0417
     11  CZ        26.3870   34.6020   20.0090 C.ar  140  TYR140      0.1957
     12  OH        27.0650   34.1550   21.1360 O.3   140  TYR140     -0.2866
     13  N         28.2710   38.1790    7.0350 N.3   144  TRP144     -0.1241
     14  CA        28.0230   37.8010    5.6280 C.3   144  TRP144      0.1605
     15  C         26.5750   37.8880    5.1930 C.2   144  TRP144      0.2264
     16  O         26.2400   37.5850    4.0360 O.2   144  TRP144     -0.2867
     17  CB        28.5210   36.3480    5.4260 C.3   144  TRP144      0.0550
     18  CG        27.8100   35.3490    6.3100 C.ar  144  TRP144      0.0003
     19  CD1       26.7040   34.6100    6.0740 C.ar  144  TRP144      0.0946
     20  CD2       28.2960   34.9210    7.6080 C.ar  144  TRP144      0.0152
     21  NE1       26.4370   33.7720    7.1350 N.ar  144  TRP144     -0.2442
     22  CE2       27.4030   33.9620    8.0910 C.ar  144  TRP144      0.0810
     23  CE3       29.4040   35.2720    8.3960 C.ar  144  TRP144      0.0012
     24  CZ2       27.5320   33.3540    9.3410 C.ar  144  TRP144      0.0191
     25  CZ3       29.5380   34.6620    9.6380 C.ar  144  TRP144      0.0001
     26  CH2       28.6080   33.7170   10.1100 C.ar  144  TRP144      0.0015
     27  N         31.3160   36.7410   12.4600 N.3   168  PHE168     -0.1241
     28  CA        32.2600   36.3600   13.4840 C.3   168  PHE168      0.1605
     29  C         33.5750   37.1120   13.2150 C.2   168  PHE168      0.2264
     30  O         33.9050   37.3230   12.0530 O.2   168  PHE168     -0.2867
     31  CB        32.5640   34.8560   13.4720 C.3   168  PHE168      0.0534
     32  CG        31.4960   33.9860   14.0350 C.ar  168  PHE168     -0.0203
     33  CD1       31.2120   33.9040   15.3790 C.ar  168  PHE168     -0.0042
     34  CD2       30.7900   33.1820   13.1590 C.ar  168  PHE168     -0.0042
     35  CE1       30.2160   33.0440   15.8340 C.ar  168  PHE168     -0.0003
     36  CE2       29.8280   32.2650   13.5910 C.ar  168  PHE168     -0.0003
     37  CZ        29.5220   32.2360   14.9390 C.ar  168  PHE168     -0.0000
     38  N         31.6020   27.7610   13.9060 N.3   252  TRP252     -0.1241
     39  CA        31.8740   26.4120   13.3810 C.3   252  TRP252      0.1605
     40  C         33.1420   26.4190   12.5350 C.2   252  TRP252      0.2264
     41  O         33.8730   25.4160   12.6020 O.2   252  TRP252     -0.2867
     42  CB        30.7180   25.9590   12.4840 C.3   252  TRP252      0.0550
     43  CG        30.8010   24.5150   12.0290 C.ar  252  TRP252      0.0003
     44  CD1       31.0810   24.0770   10.7820 C.ar  252  TRP252      0.0946
     45  CD2       30.5950   23.3610   12.8440 C.ar  252  TRP252      0.0152
     46  NE1       31.0460   22.6860   10.7510 N.ar  252  TRP252     -0.2442
     47  CE2       30.7790   22.2300   12.0090 C.ar  252  TRP252      0.0810
     48  CE3       30.2840   23.1820   14.1980 C.ar  252  TRP252      0.0012
     49  CZ2       30.6380   20.9060   12.4690 C.ar  252  TRP252      0.0191
     50  CZ3       30.1620   21.8480   14.6470 C.ar  252  TRP252      0.0001
     51  CH2       30.3310   20.7520   13.7950 C.ar  252  TRP252      0.0015
     52  N         33.2570   31.7830   21.0050 N.3   290  ASP290     -0.1239
     53  CA        32.4620   30.6880   20.4660 C.3   290  ASP290      0.1674
     54  C         33.4490   29.6280   19.9240 C.2   290  ASP290      0.2266
     55  O         33.7010   29.4680   18.7190 O.2   290  ASP290     -0.2867
     56  CB        31.5180   31.1820   19.3790 C.3   290  ASP290      0.1410
     57  CG        30.6680   30.1010   18.7380 C.2   290  ASP290      0.3668
     58  OD1       30.6000   28.9600   19.2790 O.co2 290  ASP290     -0.2456
     59  OD2       30.1330   30.4100   17.6430 O.co2 290  ASP290     -0.2456
     60  N         34.2130   26.0380   19.2170 N.3   292  GLU292     -0.1245
     61  CA        33.5010   24.8180   18.9460 C.3   292  GLU292      0.1567
     62  C         34.4540   23.7020   18.5240 C.2   292  GLU292      0.2260
     63  O         34.8040   23.5620   17.3530 O.2   292  GLU292     -0.2867
     64  CB        32.4840   25.0870   17.7900 C.3   292  GLU292      0.0388
     65  CG        31.6080   26.3070   18.1310 C.3   292  GLU292      0.1160
     66  CD        30.3510   26.4970   17.3130 C.2   292  GLU292      0.3649
     67  OE1       30.0690   25.7160   16.3930 O.co2 292  GLU292     -0.2457
     68  OE2       29.5560   27.4330   17.5960 O.co2 292  GLU292     -0.2457
     69  N         29.5850   31.1630   23.8110 N.3   339  ALA339     -0.1245
     70  CA        28.5650   30.2700   23.2830 C.3   339  ALA339      0.1562
     71  C         29.1380   28.8470   23.3930 C.2   339  ALA339      0.2260
     72  O         30.2890   28.6350   23.0040 O.2   339  ALA339     -0.2867
     73  CB        28.3410   30.6040   21.8030 C.3   339  ALA339      0.0290
     74  N         23.9780   26.7860   23.6140 N.3   365  MET365     -0.1245
     75  CA        23.4490   26.5460   22.2740 C.3   365  MET365      0.1570
     76  C         22.5310   25.3330   22.3230 C.2   365  MET365      0.2261
     77  O         22.8360   24.2190   21.8650 O.2   365  MET365     -0.2867
     78  CB        24.6060   26.3810   21.2880 C.3   365  MET365      0.0387
     79  CG        25.3720   27.6990   21.0600 C.3   365  MET365      0.0595
     80  SD        26.5550   27.5350   19.7050 S.3   365  MET365     -0.1393
     81  CE        27.8440   26.4730   20.3610 C.3   365  MET365      0.0692
     82  N         20.2820   24.0160   20.6270 N.3   367  TYR367     -0.1227
     83  CA        19.7790   23.6980   19.3100 C.3   367  TYR367      0.1736
     84  C         20.8170   22.8250   18.6030 C.2   367  TYR367      0.2595
     85  O         21.8420   22.4200   19.1480 O.2   367  TYR367     -0.2718
     86  CB        19.4160   24.9320   18.4910 C.3   367  TYR367      0.0548
     87  CG        20.2970   26.1400   18.6930 C.ar  367  TYR367     -0.0200
     88  CD1       21.6220   26.1530   18.2490 C.ar  367  TYR367     -0.0009
     89  CD2       19.7850   27.2620   19.3300 C.ar  367  TYR367     -0.0009
     90  CE1       22.4190   27.2700   18.4480 C.ar  367  TYR367      0.0417
     91  CE2       20.5840   28.3780   19.5450 C.ar  367  TYR367      0.0417
     92  CZ        21.8930   28.3610   19.0980 C.ar  367  TYR367      0.1957
     93  OH        22.6640   29.4880   19.2860 O.3   367  TYR367     -0.2866
     94  N         20.5150   22.4610   17.3750 N.am  368  ASP368     -0.1974
     95  CA        21.2910   21.5790   16.5140 C.3   368  ASP368      0.1709
     96  C         21.3760   20.1750   17.1390 C.2   368  ASP368      0.2293
     97  O         22.3550   19.4650   16.9050 O.2   368  ASP368     -0.2864
     98  CB        22.6910   22.1540   16.3030 C.3   368  ASP368      0.1436
     99  CG        22.7020   23.5750   15.7560 C.2   368  ASP368      0.3671
    100  OD1       21.8340   23.8720   14.9130 O.co2 368  ASP368     -0.2456
    101  OD2       23.5970   24.3130   16.2040 O.co2 368  ASP368     -0.2456
    102  N         15.8580   29.2080   12.9430 N.3   421  TYR421     -0.1241
    103  CA        15.9860   28.4410   11.7230 C.3   421  TYR421      0.1605
    104  C         15.5460   27.0080   12.0360 C.2   421  TYR421      0.2264
    105  O         15.6640   26.5740   13.1920 O.2   421  TYR421     -0.2867
    106  CB        17.4500   28.4430   11.2040 C.3   421  TYR421      0.0534
    107  CG        18.3510   27.8390   12.2900 C.ar  421  TYR421     -0.0201
    108  CD1       18.9120   28.6680   13.2660 C.ar  421  TYR421     -0.0009
    109  CD2       18.6300   26.4740   12.2640 C.ar  421  TYR421     -0.0009
    110  CE1       19.7170   28.0790   14.2320 C.ar  421  TYR421      0.0417
    111  CE2       19.4250   25.8840   13.2420 C.ar  421  TYR421      0.0417
    112  CZ        19.9700   26.6960   14.2150 C.ar  421  TYR421      0.1957
    113  OH        20.7830   26.1980   15.2180 O.3   421  TYR421     -0.2866
    114  N         16.0390   22.8150   11.0120 N.3   423  ARG423     -0.1245
    115  CA        16.8610   21.8520   10.2740 C.3   423  ARG423      0.1563
    116  C         15.9040   20.7930    9.7190 C.2   423  ARG423      0.2260
    117  O         14.8540   20.6210   10.3250 O.2   423  ARG423     -0.2867
    118  CB        17.8500   21.1810   11.2460 C.3   423  ARG423      0.0307
    119  CG        18.9620   22.1710   11.6510 C.3   423  ARG423      0.0489
    120  CD        20.0330   21.4430   12.4700 C.3   423  ARG423      0.2205
    121  NE        21.1140   22.3900   12.7660 N.pl3 423  ARG423     -0.0865
    122  CZ        22.1350   22.6730   11.9640 C.cat 423  ARG423      0.5346
    123  NH1       22.2170   22.0150   10.8050 N.pl3 423  ARG423      0.1354
    124  NH2       23.0610   23.5630   12.3060 N.pl3 423  ARG423      0.1354
    125  N         18.6940   33.6870   24.2040 N.3   514  PHE514     -0.1241
    126  CA        19.3720   34.3460   23.0630 C.3   514  PHE514      0.1605
    127  C         19.0330   33.5480   21.8080 C.2   514  PHE514      0.2264
    128  O         18.4890   32.4400   21.9660 O.2   514  PHE514     -0.2867
    129  CB        20.8800   34.4400   23.3250 C.3   514  PHE514      0.0534
    130  CG        21.5430   33.1090   23.1030 C.ar  514  PHE514     -0.0203
    131  CD1       21.4700   32.1120   24.0580 C.ar  514  PHE514     -0.0042
    132  CD2       22.1960   32.8790   21.8880 C.ar  514  PHE514     -0.0042
    133  CE1       22.0460   30.8840   23.7820 C.ar  514  PHE514     -0.0003
    134  CE2       22.7700   31.6540   21.6390 C.ar  514  PHE514     -0.0003
    135  CZ        22.7100   30.6410   22.5920 C.ar  514  PHE514     -0.0000
    136  N         19.9640   32.4330   17.4970 N.3   516  TRP516     -0.1227
    137  CA        20.7230   32.4240   16.2460 C.3   516  TRP516      0.1737
    138  C         19.7610   32.1170   15.1130 C.2   516  TRP516      0.2592
    139  O         18.9970   31.1530   15.1860 O.2   516  TRP516     -0.2718
    140  CB        21.7610   31.2510   16.3140 C.3   516  TRP516      0.0564
    141  CG        22.5930   31.2210   15.0570 C.ar  516  TRP516      0.0003
    142  CD1       22.3140   30.6700   13.8430 C.ar  516  TRP516      0.0946
    143  CD2       23.8700   31.8560   14.9030 C.ar  516  TRP516      0.0152
    144  NE1       23.3400   30.8960   12.9580 N.ar  516  TRP516     -0.2442
    145  CE2       24.3070   31.6480   13.5800 C.ar  516  TRP516      0.0810
    146  CE3       24.6810   32.5960   15.7620 C.ar  516  TRP516      0.0012
    147  CZ2       25.5150   32.1800   13.1180 C.ar  516  TRP516      0.0191
    148  CZ3       25.8930   33.1020   15.3130 C.ar  516  TRP516      0.0001
    149  CH2       26.2990   32.8530   13.9990 C.ar  516  TRP516      0.0015
    150  N         19.7370   32.9160   14.0620 N.am  517  GLU517     -0.2033
    151  CA        20.4290   34.1560   13.8630 C.3   517  GLU517      0.1288
    152  C         19.3900   35.2620   13.5400 C.3   517  GLU517      0.2036
    153  O         18.3040   34.8490   13.1020 O.3   517  GLU517     -0.2185
    154  CB        21.4420   34.1620   12.7150 C.3   517  GLU517      0.0362
    155  CG        21.1090   33.3620   11.4590 C.3   517  GLU517      0.1159
    156  CD        22.2830   33.3090   10.4770 C.2   517  GLU517      0.3649
    157  OE1       22.4490   34.2520    9.6540 O.co2 517  GLU517     -0.2457
    158  OE2       23.0150   32.2980   10.5100 O.co2 517  GLU517     -0.2457
@<TRIPOS>BOND
     1    16    15    2
     2    15    14    1
     3    17    14    1
     4    17    18    1
     5    14    13    1
     6    19    18   ar
     7    19    21   ar
     8    18    20   ar
     9    21    22   ar
    10    20    22   ar
    11    20    23   ar
    12    22    24   ar
    13    23    25   ar
    14    24    26   ar
    15    25    26   ar
    16   157   156   ar
    17   116   115    1
    18   116   117    2
    19   115   114    1
    20   115   118    1
    21   156   158   ar
    22   156   155    1
    23    46    44   ar
    24    46    47   ar
    25    44    43   ar
    26   123   122    1
    27   106   103    1
    28   106   107    1
    29   118   119    1
    30   155   154    1
    31   119   120    1
    32   103   104    1
    33   103   102    1
    34   122   124    1
    35   122   121    2
    36    47    49   ar
    37    47    45   ar
    38    43    42    1
    39    43    45   ar
    40   104   105    2
    41    30    29    2
    42   109   107   ar
    43   109   111   ar
    44   107   108   ar
    45    27    28    1
    46    49    51   ar
    47   120   121    1
    48    42    39    1
    49    40    41    2
    50    40    39    1
    51   154   151    1
    52    45    48   ar
    53   144   145   ar
    54   144   142   ar
    55   153   152    1
    56   147   145   ar
    57   147   149   ar
    58    34    36   ar
    59    34    32   ar
    60    29    28    1
    61   111   112   ar
    62   108   110   ar
    63    39    38    1
    64    31    28    1
    65    31    32    1
    66   152   151    1
    67   145   143   ar
    68    36    37   ar
    69    51    50   ar
    70   142   141   ar
    71   151   150    1
    72   149   148   ar
    73    32    33   ar
    74   150   138   am
    75    48    50   ar
    76   112   110   ar
    77   112   113    1
    78     4     3    1
    79   143   141   ar
    80   143   146   ar
    81   100    99   ar
    82    37    35   ar
    83   141   140    1
    84   138   139    2
    85   138   137    1
    86     3     2    1
    87   148   146   ar
    88    33    35   ar
    89    99   101   ar
    90    99    98    1
    91   137   140    1
    92   137   136    1
    93    98    95    1
    94    67    66   ar
    95     5     2    1
    96     5     6    1
    97    95    96    1
    98    95    94    1
    99     2     1    1
   100    97    96    2
   101    66    68   ar
   102    66    65    1
   103    63    62    2
   104    94    84   am
   105    59    57   ar
   106     6     8   ar
   107     6     7   ar
   108    64    65    1
   109    64    61    1
   110     8    10   ar
   111    88    90   ar
   112    88    87   ar
   113    90    92   ar
   114    86    87    1
   115    86    83    1
   116    62    61    1
   117    84    85    2
   118    84    83    1
   119    87    89   ar
   120    55    54    2
   121    57    58   ar
   122    57    56    1
   123     7     9   ar
   124    10    11   ar
   125    61    60    1
   126    92    93    1
   127    92    91   ar
   128    83    82    1
   129    89    91   ar
   130    56    53    1
   131    80    81    1
   132    80    79    1
   133    54    53    1
   134     9    11   ar
   135    11    12    1
   136    53    52    1
   137    79    78    1
   138    78    75    1
   139   134   132   ar
   140   134   135   ar
   141    73    70    1
   142   127   128    2
   143   127   126    1
   144    77    76    2
   145   132   130   ar
   146    75    76    1
   147    75    74    1
   148   135   133   ar
   149    72    71    2
   150   126   129    1
   151   126   125    1
   152   130   129    1
   153   130   131   ar
   154    70    71    1
   155    70    69    1
   156   133   131   ar
