@<TRIPOS>MOLECULE
tmp/1ffrA01.pdb
 147 143 0 0 0
SMALL
GASTEIGER

@<TRIPOS>ATOM
      1  N         31.7280   28.0730   13.6030 N.3   252  TRP252     -0.1241
      2  CA        32.0210   26.7230   13.0970 C.3   252  TRP252      0.1605
      3  C         33.3060   26.6990   12.2930 C.2   252  TRP252      0.2264
      4  O         33.9950   25.6750   12.3830 O.2   252  TRP252     -0.2867
      5  CB        30.8890   26.1950   12.2270 C.3   252  TRP252      0.0550
      6  CG        31.0070   24.7530   11.8200 C.ar  252  TRP252      0.0003
      7  CD1       31.1820   24.3130   10.5250 C.ar  252  TRP252      0.0946
      8  CD2       30.8570   23.6000   12.6320 C.ar  252  TRP252      0.0152
      9  NE1       31.1670   22.9310   10.5160 N.ar  252  TRP252     -0.2442
     10  CE2       30.9890   22.4630   11.7830 C.ar  252  TRP252      0.0810
     11  CE3       30.6540   23.3530   13.9910 C.ar  252  TRP252      0.0012
     12  CZ2       30.9190   21.1510   12.2740 C.ar  252  TRP252      0.0191
     13  CZ3       30.5850   22.0750   14.4710 C.ar  252  TRP252      0.0001
     14  CH2       30.7170   20.9580   13.6130 C.ar  252  TRP252      0.0015
     15  N         34.1790   26.2150   18.8430 N.3   292  GLU292     -0.1231
     16  CA        33.4500   24.9760   18.5600 C.3   292  GLU292      0.1699
     17  C         34.4410   23.8710   18.1260 C.2   292  GLU292      0.2592
     18  O         34.8610   23.8200   16.9670 O.2   292  GLU292     -0.2718
     19  CB        32.4040   25.2530   17.4730 C.3   292  GLU292      0.0402
     20  CG        31.4980   26.4410   17.8830 C.3   292  GLU292      0.1161
     21  CD        30.3300   26.7420   16.9850 C.2   292  GLU292      0.3649
     22  OE1       30.0250   26.0030   16.0180 O.co2 292  GLU292     -0.2457
     23  OE2       29.6190   27.7520   17.2240 O.co2 292  GLU292     -0.2457
     24  N         34.7520   22.9690   19.0500 N.am  293  PHE293     -0.1976
     25  CA        34.4820   23.0380   20.4830 C.3   293  PHE293      0.1639
     26  C         35.6660   22.4540   21.2510 C.2   293  PHE293      0.2290
     27  O         36.4380   21.6460   20.7110 O.2   293  PHE293     -0.2864
     28  CB        33.3650   22.0250   20.8470 C.3   293  PHE293      0.0560
     29  CG        32.1450   22.1040   19.9440 C.ar  293  PHE293     -0.0200
     30  CD1       31.1800   23.0900   20.1660 C.ar  293  PHE293     -0.0042
     31  CD2       31.9960   21.1840   18.9050 C.ar  293  PHE293     -0.0042
     32  CE1       30.0550   23.1570   19.3400 C.ar  293  PHE293     -0.0003
     33  CE2       30.8710   21.2500   18.0780 C.ar  293  PHE293     -0.0003
     34  CZ        29.9000   22.2370   18.2960 C.ar  293  PHE293     -0.0000
     35  N         35.3910   17.4930   17.5890 N.3   297  LYS297     -0.1245
     36  CA        34.0560   17.2470   17.0600 C.3   297  LYS297      0.1561
     37  C         33.4520   18.5480   16.5050 C.2   297  LYS297      0.2260
     38  O         32.2450   18.7060   16.3120 O.2   297  LYS297     -0.2867
     39  CB        33.0850   16.6830   18.0950 C.3   297  LYS297      0.0271
     40  CG        33.4280   15.3310   18.7190 C.3   297  LYS297      0.0035
     41  CD        32.3350   15.0510   19.7700 C.3   297  LYS297      0.0206
     42  CE        32.7410   13.9190   20.6960 C.3   297  LYS297      0.1093
     43  NZ        32.0490   13.9640   22.0250 N.3   297  LYS297     -0.1314
     44  N         28.6450   24.4650   23.1690 N.3   341  SER341     -0.1202
     45  CA        27.7480   23.3530   22.8700 C.3   341  SER341      0.2020
     46  C         26.8210   23.0700   24.0600 C.2   341  SER341      0.2619
     47  O         27.1190   23.2240   25.2380 O.2   341  SER341     -0.2717
     48  CB        28.5670   22.0980   22.5200 C.3   341  SER341      0.2103
     49  OG        27.7080   20.9740   22.3090 O.3   341  SER341     -0.2182
     50  N         25.5780   22.6880   23.7280 N.am  342  ALA342     -0.1965
     51  CA        24.6010   22.2340   24.6980 C.3   342  ALA342      0.1728
     52  C         24.5940   20.7100   24.8580 C.2   342  ALA342      0.2616
     53  O         23.8210   20.2280   25.6820 O.2   342  ALA342     -0.2715
     54  CB        23.1840   22.6830   24.3120 C.3   342  ALA342      0.0334
     55  N         25.3980   19.9770   24.0860 N.am  343  GLY343     -0.1955
     56  CA        25.4960   18.5190   24.2540 C.3   343  GLY343      0.1869
     57  C         26.2720   18.1370   25.5060 C.2   343  GLY343      0.2309
     58  O         27.3690   18.6660   25.7560 O.2   343  GLY343     -0.2863
     59  N         29.8820   17.2800   25.2400 N.3   346  LYS346     -0.1245
     60  CA        30.8530   18.3620   25.0150 C.3   346  LYS346      0.1561
     61  C         30.9580   19.2390   26.2330 C.2   346  LYS346      0.2260
     62  O         32.0560   19.7080   26.5360 O.2   346  LYS346     -0.2867
     63  CB        30.4430   19.1160   23.7520 C.3   346  LYS346      0.0271
     64  CG        30.4210   18.1710   22.5470 C.3   346  LYS346      0.0035
     65  CD        30.1680   18.9050   21.2670 C.3   346  LYS346      0.0206
     66  CE        29.9660   18.0180   20.0520 C.3   346  LYS346      0.1093
     67  NZ        28.6890   17.2390   20.1440 N.3   346  LYS346     -0.1314
     68  N         24.2050   26.9490   23.3600 N.3   365  MET365     -0.1245
     69  CA        23.7220   26.7450   22.0130 C.3   365  MET365      0.1570
     70  C         22.7360   25.5620   22.0190 C.2   365  MET365      0.2261
     71  O         23.0100   24.5460   21.4020 O.2   365  MET365     -0.2867
     72  CB        24.8200   26.5890   20.9690 C.3   365  MET365      0.0387
     73  CG        25.6950   27.8680   20.8990 C.3   365  MET365      0.0595
     74  SD        26.8160   27.8220   19.4920 S.3   365  MET365     -0.1393
     75  CE        28.0770   26.6900   20.0910 C.3   365  MET365      0.0692
     76  N         20.4140   24.3630   20.2890 N.3   367  PHE367     -0.1227
     77  CA        19.9180   24.1350   18.9510 C.3   367  PHE367      0.1736
     78  C         20.8680   23.1890   18.2060 C.2   367  PHE367      0.2595
     79  O         21.8980   22.7930   18.7770 O.2   367  PHE367     -0.2718
     80  CB        19.6500   25.4260   18.1640 C.3   367  PHE367      0.0547
     81  CG        20.5220   26.6370   18.4740 C.ar  367  PHE367     -0.0202
     82  CD1       21.8770   26.6190   18.1670 C.ar  367  PHE367     -0.0042
     83  CD2       20.0010   27.7580   19.0800 C.ar  367  PHE367     -0.0042
     84  CE1       22.6660   27.7240   18.4590 C.ar  367  PHE367     -0.0003
     85  CE2       20.7890   28.8560   19.3830 C.ar  367  PHE367     -0.0003
     86  CZ        22.1410   28.8450   19.0700 C.ar  367  PHE367     -0.0000
     87  N         20.5570   22.8020   16.9910 N.am  368  ASP368     -0.1960
     88  CA        21.3150   21.8330   16.2040 C.3   368  ASP368      0.1840
     89  C         21.4100   20.4600   16.8610 C.2   368  ASP368      0.2622
     90  O         22.4110   19.7360   16.6570 O.2   368  ASP368     -0.2715
     91  CB        22.7400   22.3710   15.9970 C.3   368  ASP368      0.1450
     92  CG        22.7580   23.8090   15.5150 C.2   368  ASP368      0.3671
     93  OD1       22.0220   24.1880   14.5790 O.co2 368  ASP368     -0.2456
     94  OD2       23.5230   24.6170   16.0870 O.co2 368  ASP368     -0.2456
     95  N         20.3480   20.0880   17.5870 N.am  369  PHE369     -0.1974
     96  CA        20.4040   18.8220   18.3310 C.3   369  PHE369      0.1639
     97  C         20.3100   17.6730   17.3400 C.2   369  PHE369      0.2290
     98  O         20.7700   16.5460   17.5630 O.2   369  PHE369     -0.2864
     99  CB        19.2700   18.6900   19.3410 C.3   369  PHE369      0.0560
    100  CG        19.2920   19.6370   20.4990 C.ar  369  PHE369     -0.0200
    101  CD1       20.4890   20.0080   21.1030 C.ar  369  PHE369     -0.0042
    102  CD2       18.1290   20.1750   21.0040 C.ar  369  PHE369     -0.0042
    103  CE1       20.4960   20.8810   22.1710 C.ar  369  PHE369     -0.0003
    104  CE2       18.1220   21.0440   22.0920 C.ar  369  PHE369     -0.0003
    105  CZ        19.3170   21.4150   22.6710 C.ar  369  PHE369     -0.0000
    106  N         22.6470   16.5440    9.0300 N.3   373  PHE373     -0.1241
    107  CA        23.9500   15.8820    9.2290 C.3   373  PHE373      0.1605
    108  C         23.7970   14.4370    9.6790 C.2   373  PHE373      0.2264
    109  O         24.7920   13.6850    9.6620 O.2   373  PHE373     -0.2867
    110  CB        24.8030   16.6480   10.2490 C.3   373  PHE373      0.0534
    111  CG        24.0520   17.0730   11.4860 C.ar  373  PHE373     -0.0203
    112  CD1       23.7910   16.2390   12.5460 C.ar  373  PHE373     -0.0042
    113  CD2       23.6090   18.3930   11.5410 C.ar  373  PHE373     -0.0042
    114  CE1       23.0960   16.6890   13.6510 C.ar  373  PHE373     -0.0003
    115  CE2       22.9210   18.8600   12.6430 C.ar  373  PHE373     -0.0003
    116  CZ        22.6660   18.0180   13.7050 C.ar  373  PHE373     -0.0000
    117  N         19.7740   14.8300   23.5090 N.3   395  TYR395     -0.1241
    118  CA        20.0270   16.2610   23.2290 C.3   395  TYR395      0.1605
    119  C         18.7050   17.0270   23.3090 C.2   395  TYR395      0.2264
    120  O         17.9930   17.0430   22.3180 O.2   395  TYR395     -0.2867
    121  CB        20.6380   16.4740   21.8630 C.3   395  TYR395      0.0534
    122  CG        22.1020   16.0610   21.8570 C.ar  395  TYR395     -0.0201
    123  CD1       22.7910   15.9060   23.0380 C.ar  395  TYR395     -0.0009
    124  CD2       22.7680   15.9050   20.6580 C.ar  395  TYR395     -0.0009
    125  CE1       24.1280   15.5610   23.0390 C.ar  395  TYR395      0.0417
    126  CE2       24.1150   15.5700   20.6400 C.ar  395  TYR395      0.0417
    127  CZ        24.7800   15.3980   21.8410 C.ar  395  TYR395      0.1957
    128  OH        26.1210   15.0670   21.7590 O.3   395  TYR395     -0.2866
    129  N         15.9670   23.2110   10.9090 N.3   423  ARG423     -0.1245
    130  CA        16.7280   22.2260   10.1090 C.3   423  ARG423      0.1563
    131  C         15.7450   21.2250    9.5440 C.2   423  ARG423      0.2260
    132  O         14.6660   20.9950   10.1200 O.2   423  ARG423     -0.2867
    133  CB        17.7700   21.5620   11.0130 C.3   423  ARG423      0.0307
    134  CG        18.8300   22.5910   11.4670 C.3   423  ARG423      0.0489
    135  CD        19.8870   21.8040   12.2510 C.3   423  ARG423      0.2205
    136  NE        21.0740   22.6020   12.5180 N.pl3 423  ARG423     -0.0865
    137  CZ        22.0860   22.7180   11.6660 C.cat 423  ARG423      0.5346
    138  NH1       22.0480   22.0760   10.5060 N.pl3 423  ARG423      0.1354
    139  NH2       23.1270   23.4950   12.0000 N.pl3 423  ARG423      0.1354
    140  N         18.8770   23.7170    6.0010 N.3   453  ILE453     -0.1245
    141  CA        18.5760   24.8280    6.9210 C.3   453  ILE453      0.1561
    142  C         17.6550   25.8300    6.2440 C.2   453  ILE453      0.2260
    143  O         17.8530   26.1930    5.0870 O.2   453  ILE453     -0.2867
    144  CB        19.9100   25.5280    7.2730 C.3   453  ILE453      0.0252
    145  CG1       20.8290   24.4530    7.8620 C.3   453  ILE453      0.0019
    146  CG2       19.6540   26.6580    8.2570 C.3   453  ILE453      0.0019
    147  CD1       22.0310   25.0520    8.5800 C.3   453  ILE453      0.0001
@<TRIPOS>BOND
     1   143   142    2
     2   140   141    1
     3   142   141    1
     4   141   144    1
     5   144   145    1
     6   144   146    1
     7   145   147    1
     8   106   107    1
     9   107   108    1
    10   107   110    1
    11   131   130    1
    12   131   132    2
    13   109   108    2
    14   130   129    1
    15   130   133    1
    16   110   111    1
    17   138   137    1
    18     9     7   ar
    19     9    10   ar
    20     7     6   ar
    21   133   134    1
    22   134   135    1
    23   111   113   ar
    24   111   112   ar
    25   113   115   ar
    26   137   139    1
    27   137   136    2
    28    10    12   ar
    29    10     8   ar
    30     6     5    1
    31     6     8   ar
    32     5     2    1
    33   135   136    1
    34    12    14   ar
    35     3     4    2
    36     3     2    1
    37   112   114   ar
    38     8    11   ar
    39   115   116   ar
    40     2     1    1
    41    14    13   ar
    42   114   116   ar
    43    11    13   ar
    44    93    92   ar
    45    92    91    1
    46    92    94   ar
    47    91    88    1
    48    22    21   ar
    49    88    89    1
    50    88    87    1
    51    38    37    2
    52    37    36    1
    53    90    89    2
    54    89    95   am
    55    18    17    2
    56    21    23   ar
    57    21    20    1
    58    87    78   am
    59    36    35    1
    60    36    39    1
    61    97    98    2
    62    97    96    1
    63    19    20    1
    64    19    16    1
    65    95    96    1
    66    33    34   ar
    67    33    31   ar
    68    39    40    1
    69    17    16    1
    70    17    24   am
    71    80    81    1
    72    80    77    1
    73    82    84   ar
    74    82    81   ar
    75    78    79    2
    76    78    77    1
    77    34    32   ar
    78    96    99    1
    79    84    86   ar
    80    81    83   ar
    81    16    15    1
    82    40    41    1
    83    31    29   ar
    84    77    76    1
    85    24    25    1
    86    86    85   ar
    87    83    85   ar
    88    32    30   ar
    89    99   100    1
    90    74    75    1
    91    74    73    1
    92    41    42    1
    93    29    30   ar
    94    29    28    1
    95    66    67    1
    96    66    65    1
    97    25    28    1
    98    25    26    1
    99   100   102   ar
   100   100   101   ar
   101   126   124   ar
   102   126   127   ar
   103   124   122   ar
   104    42    43    1
   105    27    26    2
   106    73    72    1
   107    72    69    1
   108   102   104   ar
   109   101   103   ar
   110    65    64    1
   111    71    70    2
   112   128   127    1
   113   127   125   ar
   114   122   121    1
   115   122   123   ar
   116   121   118    1
   117    69    70    1
   118    69    68    1
   119   104   105   ar
   120   103   105   ar
   121    49    48    1
   122   120   119    2
   123    48    45    1
   124    64    63    1
   125    45    44    1
   126    45    46    1
   127   123   125   ar
   128   118   119    1
   129   118   117    1
   130    50    46   am
   131    50    51    1
   132    63    60    1
   133    46    47    2
   134    55    56    1
   135    55    52   am
   136    56    57    1
   137    54    51    1
   138    51    52    1
   139    52    53    2
   140    60    59    1
   141    60    61    1
   142    57    58    2
   143    61    62    2
