@<TRIPOS>MOLECULE
tmp/1ffuE00.pdb
 187 180 0 0 0
SMALL
GASTEIGER

@<TRIPOS>ATOM
      1  N         42.3040   74.9120   57.8440 N.3   516  GLN516     -0.1245
      2  CA        43.1190   75.8810   57.1260 C.3   516  GLN516      0.1566
      3  C         43.6500   77.0470   57.9500 C.2   516  GLN516      0.2260
      4  O         44.2580   77.9630   57.3980 O.2   516  GLN516     -0.2867
      5  CB        42.4360   76.3690   55.8410 C.3   516  GLN516      0.0367
      6  CG        40.9410   76.5420   55.9170 C.3   516  GLN516      0.0905
      7  CD        40.1980   75.2720   55.5660 C.2   516  GLN516      0.2608
      8  OE1       39.9900   74.4300   56.4240 O.2   516  GLN516     -0.2717
      9  NE2       39.7940   75.1340   54.3120 N.am  516  GLN516     -0.0878
     10  N         41.8790   79.3690   60.1390 N.3   518  HIS518     -0.1241
     11  CA        41.0840   80.5920   60.3160 C.3   518  HIS518      0.1621
     12  C         41.2170   81.2540   61.6850 C.2   518  HIS518      0.2264
     13  O         41.3220   82.4750   61.7670 O.2   518  HIS518     -0.2867
     14  CB        39.6030   80.3350   60.0340 C.3   518  HIS518      0.0745
     15  CG        39.3010   80.0300   58.5990 C.ar  518  HIS518      0.0817
     16  ND1       38.0130   79.9730   58.1090 N.ar  518  HIS518     -0.2268
     17  CD2       40.1140   79.7390   57.5550 C.ar  518  HIS518      0.1154
     18  CE1       38.0460   79.6550   56.8270 C.ar  518  HIS518      0.1986
     19  NE2       39.3080   79.5070   56.4660 N.ar  518  HIS518     -0.2212
     20  N         44.6590   83.1270   61.1890 N.3   521  THR521     -0.1203
     21  CA        44.6760   84.1440   60.1400 C.3   521  THR521      0.1994
     22  C         43.6590   85.2710   60.3360 C.2   521  THR521      0.2617
     23  O         44.0120   86.4450   60.2290 O.2   521  THR521     -0.2717
     24  CB        44.4810   83.5180   58.7470 C.3   521  THR521      0.1784
     25  OG1       43.3150   82.6870   58.7490 O.3   521  THR521     -0.2211
     26  CG2       45.6910   82.6900   58.3560 C.3   521  THR521      0.0376
     27  N         42.4070   84.9150   60.6320 N.am  522  TYR522     -0.1975
     28  CA        41.3470   85.9070   60.8400 C.3   522  TYR522      0.1639
     29  C         41.7580   86.8840   61.9050 C.2   522  TYR522      0.2290
     30  O         41.5240   88.0850   61.7830 O.2   522  TYR522     -0.2864
     31  CB        40.0360   85.2470   61.2700 C.3   522  TYR522      0.0560
     32  CG        39.2650   84.5860   60.1530 C.ar  522  TYR522     -0.0198
     33  CD1       39.7860   84.5150   58.8650 C.ar  522  TYR522     -0.0009
     34  CD2       38.0050   84.0330   60.3880 C.ar  522  TYR522     -0.0009
     35  CE1       39.0730   83.9090   57.8360 C.ar  522  TYR522      0.0417
     36  CE2       37.2850   83.4260   59.3680 C.ar  522  TYR522      0.0417
     37  CZ        37.8240   83.3670   58.0940 C.ar  522  TYR522      0.1957
     38  OH        37.1220   82.7710   57.0740 O.3   522  TYR522     -0.2866
     39  N         32.7430   77.6760   54.1260 N.3   553  THR553     -0.1203
     40  CA        34.0700   77.5760   53.5360 C.3   553  THR553      0.1994
     41  C         34.2140   76.4370   52.5300 C.2   553  THR553      0.2617
     42  O         33.9670   75.2740   52.8450 O.2   553  THR553     -0.2717
     43  CB        35.1320   77.4110   54.6310 C.3   553  THR553      0.1784
     44  OG1       35.1470   78.5830   55.4490 O.3   553  THR553     -0.2211
     45  CG2       36.5110   77.2080   54.0390 C.3   553  THR553      0.0376
     46  N         34.6050   76.8080   51.3110 N.am  554  TYR554     -0.1975
     47  CA        34.8450   75.9010   50.1840 C.3   554  TYR554      0.1639
     48  C         35.1940   76.7840   48.9970 C.2   554  TYR554      0.2290
     49  O         34.9260   77.9840   49.0190 O.2   554  TYR554     -0.2864
     50  CB        33.6190   75.0260   49.8600 C.3   554  TYR554      0.0560
     51  CG        32.3130   75.7770   49.7950 C.ar  554  TYR554     -0.0198
     52  CD1       31.9630   76.5150   48.6670 C.ar  554  TYR554     -0.0009
     53  CD2       31.4470   75.7880   50.8870 C.ar  554  TYR554     -0.0009
     54  CE1       30.7820   77.2550   48.6340 C.ar  554  TYR554      0.0417
     55  CE2       30.2710   76.5190   50.8660 C.ar  554  TYR554      0.0417
     56  CZ        29.9440   77.2550   49.7420 C.ar  554  TYR554      0.1957
     57  OH        28.8090   78.0230   49.7460 O.3   554  TYR554     -0.2866
     58  N         37.8640   78.0520   48.1960 N.3   556  SER556     -0.1202
     59  CA        38.7780   79.1230   48.6120 C.3   556  SER556      0.2020
     60  C         38.0840   80.4810   48.6640 C.2   556  SER556      0.2619
     61  O         38.6490   81.4870   48.2250 O.2   556  SER556     -0.2717
     62  CB        39.9900   79.2150   47.6790 C.3   556  SER556      0.2103
     63  OG        41.0240   78.3370   48.0670 O.3   556  SER556     -0.2182
     64  N         36.8620   80.5090   49.1920 N.am  557  ARG557     -0.1965
     65  CA        36.0870   81.7460   49.2820 C.3   557  ARG557      0.1729
     66  C         36.2850   82.5290   50.5830 C.2   557  ARG557      0.2617
     67  O         35.9730   83.7090   50.6380 O.2   557  ARG557     -0.2715
     68  CB        34.5970   81.4470   49.0890 C.3   557  ARG557      0.0348
     69  CG        33.9700   80.6500   50.2250 C.3   557  ARG557      0.0492
     70  CD        32.4950   80.4010   49.9820 C.3   557  ARG557      0.2205
     71  NE        31.7980   81.6610   49.7680 N.pl3 557  ARG557     -0.0865
     72  CZ        31.1700   82.3410   50.7210 C.cat 557  ARG557      0.5346
     73  NH1       31.1330   81.8720   51.9600 N.pl3 557  ARG557      0.1354
     74  NH2       30.6600   83.5350   50.4500 N.pl3 557  ARG557      0.1354
     75  N         36.8420   81.8910   51.6070 N.am  558  SER558     -0.1936
     76  CA        37.0480   82.5430   52.9100 C.3   558  SER558      0.2055
     77  C         37.8740   83.8230   52.8730 C.2   558  SER558      0.2644
     78  O         37.4140   84.8740   53.3120 O.2   558  SER558     -0.2714
     79  CB        37.6830   81.5720   53.9040 C.3   558  SER558      0.2130
     80  OG        36.9500   80.3660   53.9670 O.3   558  SER558     -0.2179
     81  N         39.1070   83.7340   52.3840 N.am  559  THR559     -0.1937
     82  CA        39.9590   84.9130   52.3190 C.3   559  THR559      0.2013
     83  C         39.3290   85.9830   51.4360 C.2   559  THR559      0.2484
     84  O         39.2130   87.1370   51.8470 O.2   559  THR559     -0.2729
     85  CB        41.3710   84.5730   51.8140 C.3   559  THR559      0.1807
     86  OG1       41.9360   83.5620   52.6510 O.3   559  THR559     -0.2208
     87  CG2       42.2680   85.7970   51.8570 C.3   559  THR559      0.0379
     88  N         38.8730   85.6110   50.2290 N.am  560  PRO560     -0.2726
     89  CA        38.2610   86.6150   49.3560 C.3   560  PRO560      0.1402
     90  C         37.0340   87.3050   49.9440 C.2   560  PRO560      0.2269
     91  O         37.0110   88.5300   50.0570 O.2   560  PRO560     -0.2865
     92  CB        37.8870   85.8040   48.1080 C.3   560  PRO560      0.0296
     93  CG        38.9250   84.7550   48.0630 C.3   560  PRO560      0.0237
     94  CD        39.0140   84.3290   49.5160 C.3   560  PRO560      0.0939
     95  N         48.9340   84.9380   45.4430 N.3   672  CYS672     -0.1235
     96  CA        47.5790   85.1240   45.9450 C.3   672  CYS672      0.1677
     97  C         47.4350   86.5160   46.5430 C.2   672  CYS672      0.2270
     98  O         46.7210   86.7100   47.5270 O.2   672  CYS672     -0.2867
     99  CB        47.2720   84.0800   47.0090 C.3   672  CYS672      0.0956
    100  SG        48.4020   84.1670   48.3960 S.3   672  CYS672     -0.0801
    101  N         48.0440   89.8970   48.6120 N.3   674  THR674     -0.1218
    102  CA        48.5010   90.1760   49.9640 C.3   674  THR674      0.1862
    103  C         48.4190   88.9140   50.8080 C.2   674  THR674      0.2287
    104  O         47.3470   88.3270   50.9470 O.2   674  THR674     -0.2866
    105  CB        47.6500   91.2890   50.6050 C.3   674  THR674      0.1770
    106  OG1       47.6050   92.4190   49.7270 O.3   674  THR674     -0.2211
    107  CG2       48.2420   91.7270   51.9340 C.3   674  THR674      0.0375
    108  N         48.4690   86.8600   54.2710 N.3   676  ILE676     -0.1231
    109  CA        48.1470   87.0570   55.6860 C.3   676  ILE676      0.1692
    110  C         49.1670   86.3630   56.5880 C.2   676  ILE676      0.2592
    111  O         49.7820   86.9900   57.4490 O.2   676  ILE676     -0.2718
    112  CB        46.7380   86.5310   56.0180 C.3   676  ILE676      0.0266
    113  CG1       45.7140   87.1490   55.0620 C.3   676  ILE676      0.0019
    114  CG2       46.3810   86.8480   57.4710 C.3   676  ILE676      0.0020
    115  CD1       44.3140   86.6330   55.2590 C.3   676  ILE676      0.0001
    116  N         49.3490   85.0680   56.3720 N.am  677  ASN677     -0.1974
    117  CA        50.2950   84.2850   57.1530 C.3   677  ASN677      0.1688
    118  C         51.0140   83.3310   56.2010 C.2   677  ASN677      0.2292
    119  O         50.4510   82.3180   55.7770 O.2   677  ASN677     -0.2864
    120  CB        49.5620   83.4990   58.2500 C.3   677  ASN677      0.1181
    121  CG        50.5140   82.7610   59.1780 C.2   677  ASN677      0.2629
    122  OD1       51.3860   82.0140   58.7190 O.2   677  ASN677     -0.2716
    123  ND2       50.3520   82.9620   60.4800 N.am  677  ASN677     -0.0877
    124  N         51.2030   79.5410   57.1090 N.3   680  ILE680     -0.1231
    125  CA        49.9610   78.8510   56.8040 C.3   680  ILE680      0.1692
    126  C         49.7970   78.6420   55.3050 C.2   680  ILE680      0.2591
    127  O         49.3900   77.5620   54.8690 O.2   680  ILE680     -0.2718
    128  CB        48.7590   79.5960   57.4130 C.3   680  ILE680      0.0266
    129  CG1       48.7790   79.3860   58.9300 C.3   680  ILE680      0.0019
    130  CG2       47.4420   79.0830   56.8300 C.3   680  ILE680      0.0020
    131  CD1       47.8860   80.3160   59.6990 C.3   680  ILE680      0.0001
    132  N         50.1710   79.6500   54.5190 N.am  681  ILE681     -0.1980
    133  CA        50.0750   79.5680   53.0620 C.3   681  ILE681      0.1595
    134  C         50.9170   78.4070   52.5310 C.2   681  ILE681      0.2287
    135  O         50.4710   77.6520   51.6620 O.2   681  ILE681     -0.2864
    136  CB        50.5300   80.8920   52.3970 C.3   681  ILE681      0.0276
    137  CG1       49.5090   81.9960   52.6860 C.3   681  ILE681      0.0022
    138  CG2       50.7120   80.7160   50.8860 C.3   681  ILE681      0.0022
    139  CD1       49.8890   83.3380   52.0930 C.3   681  ILE681      0.0001
    140  N         49.2890   74.9920   53.0920 N.3   684  GLN684     -0.1245
    141  CA        48.2110   74.8030   52.1320 C.3   684  GLN684      0.1566
    142  C         48.7660   74.3780   50.7770 C.2   684  GLN684      0.2260
    143  O         48.1340   73.5980   50.0530 O.2   684  GLN684     -0.2867
    144  CB        47.4240   76.0950   51.9760 C.3   684  GLN684      0.0367
    145  CG        46.7770   76.5760   53.2490 C.3   684  GLN684      0.0905
    146  CD        45.6640   75.6610   53.7180 C.2   684  GLN684      0.2608
    147  OE1       44.6420   75.5210   53.0360 O.2   684  GLN684     -0.2717
    148  NE2       45.8450   75.0470   54.8810 N.am  684  GLN684     -0.0878
    149  N         43.9080   90.8310   49.4090 N.3   744  ALA744     -0.1231
    150  CA        44.1810   89.4020   49.5510 C.3   744  ALA744      0.1694
    151  C         43.3740   88.5160   48.6170 C.2   744  ALA744      0.2592
    152  O         42.1790   88.7220   48.4300 O.2   744  ALA744     -0.2718
    153  CB        43.9730   88.9680   50.9910 C.3   744  ALA744      0.0304
    154  N         44.0470   87.5320   48.0260 N.am  745  LYS745     -0.1966
    155  CA        43.4130   86.5760   47.1280 C.3   745  LYS745      0.1728
    156  C         43.4470   85.1950   47.7820 C.2   745  LYS745      0.2617
    157  O         44.3340   84.9220   48.5960 O.2   745  LYS745     -0.2715
    158  CB        44.1650   86.5110   45.7960 C.3   745  LYS745      0.0311
    159  CG        44.1860   87.8110   44.9970 C.3   745  LYS745      0.0038
    160  CD        44.8350   87.5890   43.6360 C.3   745  LYS745      0.0206
    161  CE        44.7870   88.8380   42.7700 C.3   745  LYS745      0.1093
    162  NZ        45.2380   88.5800   41.3720 N.3   745  LYS745     -0.1314
    163  N         42.4820   84.3330   47.4520 N.am  746  GLY746     -0.1940
    164  CA        42.4700   82.9820   48.0080 C.3   746  GLY746      0.2014
    165  C         43.6800   82.2050   47.5010 C.2   746  GLY746      0.2639
    166  O         44.3450   82.6640   46.5660 O.2   746  GLY746     -0.2714
    167  N         43.9790   81.0430   48.0840 N.am  747  VAL747     -0.1963
    168  CA        45.1460   80.2810   47.6360 C.3   747  VAL747      0.1727
    169  C         45.0760   78.7750   47.8310 C.2   747  VAL747      0.2616
    170  O         45.6660   78.0260   47.0530 O.2   747  VAL747     -0.2715
    171  CB        46.4550   80.7990   48.3010 C.3   747  VAL747      0.0290
    172  CG1       46.5140   80.4180   49.7750 C.3   747  VAL747      0.0023
    173  CG2       47.6680   80.2710   47.5620 C.3   747  VAL747      0.0023
    174  N         44.3460   78.3370   48.8540 N.am  748  ALA748     -0.1963
    175  CA        44.2150   76.9180   49.1830 C.3   748  ALA748      0.1728
    176  C         43.9660   75.9480   48.0250 C.2   748  ALA748      0.2616
    177  O         44.5670   74.8720   47.9750 O.2   748  ALA748     -0.2715
    178  CB        43.1460   76.7230   50.2500 C.3   748  ALA748      0.0334
    179  N         43.1090   76.3260   47.0830 N.am  749  GLU749     -0.1977
    180  CA        42.7980   75.4260   45.9840 C.3   749  GLU749      0.1602
    181  C         43.7130   75.4910   44.7750 C.2   749  GLU749      0.2287
    182  O         43.6730   74.6060   43.9160 O.2   749  GLU749     -0.2864
    183  CB        41.3310   75.5700   45.6010 C.3   749  GLU749      0.0415
    184  CG        40.4350   75.3520   46.8120 C.3   749  GLU749      0.1163
    185  CD        38.9980   75.0770   46.4610 C.2   749  GLU749      0.3649
    186  OE1       38.5780   75.4690   45.3680 O.co2 749  GLU749     -0.2457
    187  OE2       38.2810   74.4680   47.2820 O.co2 749  GLU749     -0.2457
@<TRIPOS>BOND
     1   162   161    1
     2   161   160    1
     3   160   159    1
     4   182   181    2
     5   181   180    1
     6   159   158    1
     7   186   185   ar
     8    95    96    1
     9   183   180    1
    10   183   184    1
    11   158   155    1
    12    96    97    1
    13    96    99    1
    14   180   179    1
    15   185   184    1
    16   185   187   ar
    17    97    98    2
    18   166   165    2
    19    99   100    1
    20   170   169    2
    21   179   176   am
    22   155   156    1
    23   155   154    1
    24   163   156   am
    25   163   164    1
    26   165   164    1
    27   165   167   am
    28   173   171    1
    29   168   169    1
    30   168   167    1
    31   168   171    1
    32    62    63    1
    33    62    59    1
    34   156   157    2
    35   169   174   am
    36   177   176    2
    37   176   175    1
    38   154   151   am
    39    93    92    1
    40    93    94    1
    41    92    89    1
    42    58    59    1
    43    61    60    2
    44   171   172    1
    45   152   151    2
    46    59    60    1
    47   101   102    1
    48   151   150    1
    49    54    52   ar
    50    54    56   ar
    51    60    64   am
    52    52    51   ar
    53   174   175    1
    54    48    49    2
    55    48    47    1
    56    68    65    1
    57    68    69    1
    58   175   178    1
    59    64    65    1
    60    65    66    1
    61    89    90    1
    62    89    88    1
    63   149   150    1
    64    94    88    1
    65   150   153    1
    66   106   105    1
    67    56    57    1
    68    56    55   ar
    69    71    70    1
    70    71    72    2
    71    51    50    1
    72    51    53   ar
    73    50    47    1
    74    90    91    2
    75   102   105    1
    76   102   103    1
    77    70    69    1
    78   143   142    2
    79    47    46    1
    80    88    83   am
    81    74    72    1
    82    66    67    2
    83    66    75   am
    84   105   107    1
    85    72    73    1
    86   142   141    1
    87   103   104    2
    88    55    53   ar
    89   138   136    1
    90    46    41   am
    91    83    84    2
    92    83    82    1
    93    75    76    1
    94   135   134    2
    95    85    87    1
    96    85    82    1
    97    85    86    1
    98   144   141    1
    99   144   145    1
   100   139   137    1
   101   141   140    1
   102    82    81    1
   103    81    77   am
   104   136   137    1
   105   136   133    1
   106    41    42    2
   107    41    40    1
   108   134   133    1
   109    77    76    1
   110    77    78    2
   111    76    79    1
   112   147   146    2
   113   133   132    1
   114   145   146    1
   115    40    39    1
   116    40    43    1
   117   146   148   am
   118    79    80    1
   119    45    43    1
   120   108   109    1
   121     9     7   am
   122   132   126   am
   123    43    44    1
   124   127   126    2
   125   113   115    1
   126   113   112    1
   127   126   125    1
   128     7     6    1
   129     7     8    2
   130   109   112    1
   131   109   110    1
   132   119   118    2
   133     5     6    1
   134     5     2    1
   135   112   114    1
   136   118   117    1
   137   116   110   am
   138   116   117    1
   139    19    18   ar
   140    19    17   ar
   141   110   111    2
   142   125   124    1
   143   125   128    1
   144    18    16   ar
   145   130   128    1
   146    38    37    1
   147     2     1    1
   148     2     3    1
   149   117   120    1
   150     4     3    2
   151   128   129    1
   152    17    15   ar
   153    35    37   ar
   154    35    33   ar
   155    37    36   ar
   156    16    15   ar
   157   120   121    1
   158    26    24    1
   159    15    14    1
   160   122   121    2
   161    24    25    1
   162    24    21    1
   163    33    32   ar
   164   129   131    1
   165   121   123   am
   166    36    34   ar
   167    14    11    1
   168    10    11    1
   169    21    22    1
   170    21    20    1
   171    32    34   ar
   172    32    31    1
   173    23    22    2
   174    11    12    1
   175    22    27   am
   176    27    28    1
   177    28    31    1
   178    28    29    1
   179    12    13    2
   180    30    29    2
