@<TRIPOS>MOLECULE
tmp/1fg3A00.pdb
 173 160 0 0 0
SMALL
GASTEIGER

@<TRIPOS>ATOM
      1  N         58.9040   43.6570  -12.4280 N.3    18  TYR18      -0.1241
      2  CA        57.6760   44.4390  -12.3130 C.3    18  TYR18       0.1605
      3  C         57.4380   45.4110  -13.4670 C.2    18  TYR18       0.2264
      4  O         58.3520   46.1010  -13.9180 O.2    18  TYR18      -0.2867
      5  CB        57.6740   45.2110  -10.9920 C.3    18  TYR18       0.0534
      6  CG        56.5230   46.1780  -10.8650 C.ar   18  TYR18      -0.0201
      7  CD1       55.2090   45.7220  -10.7520 C.ar   18  TYR18      -0.0009
      8  CD2       56.7430   47.5510  -10.9030 C.ar   18  TYR18      -0.0009
      9  CE1       54.1420   46.6140  -10.6880 C.ar   18  TYR18       0.0417
     10  CE2       55.6880   48.4460  -10.8390 C.ar   18  TYR18       0.0417
     11  CZ        54.3910   47.9740  -10.7350 C.ar   18  TYR18       0.1957
     12  OH        53.3510   48.8680  -10.7070 O.3    18  TYR18      -0.2866
     13  N         55.9260   48.5680  -14.0830 N.3    20  SER20      -0.1217
     14  CA        55.3680   49.8150  -13.5990 C.3    20  SER20       0.1889
     15  C         55.6660   50.8980  -14.6060 C.2    20  SER20       0.2288
     16  O         54.8630   51.8030  -14.8350 O.2    20  SER20      -0.2866
     17  CB        56.3960   50.1790  -12.1270 C.3    20  SER20       0.2089
     18  OG        57.7380   50.4460  -12.5050 O.3    20  SER20      -0.2183
     19  N         48.0190   57.4510  -14.2830 N.3    33  ASN33      -0.1225
     20  CA        48.3740   56.0360  -14.3340 C.3    33  ASN33       0.1785
     21  C         49.1670   55.4620  -13.1570 C.2    33  ASN33       0.2597
     22  O         49.3950   54.2540  -13.1120 O.2    33  ASN33      -0.2718
     23  CB        49.2000   55.8030  -15.5880 C.3    33  ASN33       0.1169
     24  CG        50.5660   56.4430  -15.4840 C.2    33  ASN33       0.2627
     25  OD1       50.6840   57.6310  -15.1710 O.2    33  ASN33      -0.2716
     26  ND2       51.6090   55.6600  -15.7280 N.am   33  ASN33      -0.0877
     27  N         49.6050   56.3050  -12.2250 N.am   34  ALA34      -0.1979
     28  CA        50.4090   55.8210  -11.1030 C.3    34  ALA34       0.1597
     29  C         49.8040   56.0760   -9.7270 C.2    34  ALA34       0.2287
     30  O         50.4650   55.8660   -8.7060 O.2    34  ALA34      -0.2864
     31  CB        51.8030   56.4410  -11.1720 C.3    34  ALA34       0.0319
     32  N         59.3280   53.1460    1.1950 N.3    81  GLY81      -0.1210
     33  CA        58.0190   52.8550    0.6380 C.3    81  GLY81       0.1956
     34  C         57.4040   51.5890    1.2040 C.2    81  GLY81       0.2612
     35  O         58.0580   50.8390    1.9280 O.2    81  GLY81      -0.2717
     36  N         56.1360   51.3530    0.8930 N.am   82  ALA82      -0.1965
     37  CA        55.4560   50.1520    1.3620 C.3    82  ALA82       0.1728
     38  C         56.0150   48.9510    0.6000 C.2    82  ALA82       0.2616
     39  O         55.8050   47.8060    0.9950 O.2    82  ALA82      -0.2715
     40  CB        53.9510   50.2710    1.1330 C.3    82  ALA82       0.0334
     41  N         56.7150   49.2150   -0.5040 N.am   83  ASP83      -0.1971
     42  CA        57.3140   48.1330   -1.2830 C.3    83  ASP83       0.1709
     43  C         58.3170   47.3750   -0.4130 C.2    83  ASP83       0.2293
     44  O         58.3410   46.1450   -0.3970 O.2    83  ASP83      -0.2864
     45  CB        58.0510   48.6700   -2.5160 C.3    83  ASP83       0.1436
     46  CG        57.1140   49.0400   -3.6590 C.2    83  ASP83       0.3671
     47  OD1       56.0410   48.4120   -3.8040 O.co2  83  ASP83      -0.2456
     48  OD2       57.4760   49.9500   -4.4330 O.co2  83  ASP83      -0.2456
     49  N         56.8090   45.1960    2.1410 N.3    86  ILE86      -0.1245
     50  CA        56.3780   43.9270    1.5620 C.3    86  ILE86       0.1561
     51  C         57.5490   42.9390    1.5740 C.2    86  ILE86       0.2260
     52  O         57.3900   41.7720    1.9380 O.2    86  ILE86      -0.2867
     53  CB        55.8960   44.1100    0.0980 C.3    86  ILE86       0.0252
     54  CG1       54.6830   45.0430    0.0620 C.3    86  ILE86       0.0019
     55  CG2       55.5660   42.7580   -0.5170 C.3    86  ILE86       0.0019
     56  CD1       54.2670   45.4630   -1.3220 C.3    86  ILE86       0.0001
     57  N         47.5140   44.2170   -6.1330 N.3   108  TYR108     -0.1241
     58  CA        48.8270   44.8250   -6.3270 C.3   108  TYR108      0.1605
     59  C         49.8760   43.7850   -6.7380 C.2   108  TYR108      0.2264
     60  O         50.0160   42.7430   -6.0960 O.2   108  TYR108     -0.2867
     61  CB        49.2630   45.5170   -5.0410 C.3   108  TYR108      0.0534
     62  CG        50.4850   46.3830   -5.2040 C.ar  108  TYR108     -0.0201
     63  CD1       51.4570   46.4270   -4.2120 C.ar  108  TYR108     -0.0009
     64  CD2       50.6600   47.1820   -6.3390 C.ar  108  TYR108     -0.0009
     65  CE1       52.5770   47.2470   -4.3370 C.ar  108  TYR108      0.0417
     66  CE2       51.7770   48.0070   -6.4720 C.ar  108  TYR108      0.0417
     67  CZ        52.7310   48.0330   -5.4630 C.ar  108  TYR108      0.1957
     68  OH        53.8320   48.8500   -5.5570 O.3   108  TYR108     -0.2866
     69  N         45.0360   43.6760    0.1300 N.3   150  CYS150     -0.1235
     70  CA        44.9950   45.1190   -0.0890 C.3   150  CYS150      0.1677
     71  C         43.5700   45.6320    0.1200 C.2   150  CYS150      0.2270
     72  O         42.6260   45.1600   -0.5250 O.2   150  CYS150     -0.2867
     73  CB        45.4720   45.4420   -1.5120 C.3   150  CYS150      0.0956
     74  SG        45.8220   47.2030   -1.8530 S.3   150  CYS150     -0.0801
     75  N         43.6570   47.5480   -4.8820 N.3   154  ASN154     -0.1240
     76  CA        44.2000   48.1200   -6.1030 C.3   154  ASN154      0.1653
     77  C         44.2490   46.9070   -7.0460 C.2   154  ASN154      0.2266
     78  O         44.7820   45.8640   -6.6800 O.2   154  ASN154     -0.2867
     79  CB        45.6120   48.6630   -5.8340 C.3   154  ASN154      0.1155
     80  CG        46.2570   49.2750   -7.0680 C.2   154  ASN154      0.2627
     81  OD1       45.6220   49.4110   -8.1170 O.2   154  ASN154     -0.2716
     82  ND2       47.5230   49.6560   -6.9450 N.am  154  ASN154     -0.0877
     83  N         47.3430   45.8180    3.3410 N.3   181  ASP181     -0.1239
     84  CA        48.0250   46.8760    2.6100 C.3   181  ASP181      0.1674
     85  C         47.0520   48.0490    2.5800 C.2   181  ASP181      0.2266
     86  O         46.0270   47.9990    1.8960 O.2   181  ASP181     -0.2867
     87  CB        48.3380   46.4130    1.1860 C.3   181  ASP181      0.1410
     88  CG        49.2090   47.3930    0.4290 C.2   181  ASP181      0.3668
     89  OD1       49.1990   48.5920    0.7690 O.co2 181  ASP181     -0.2456
     90  OD2       49.8960   46.9650   -0.5210 O.co2 181  ASP181     -0.2456
     91  N         47.7040   51.2370    1.5370 N.3   183  ALA183     -0.1231
     92  CA        48.3410   52.3040    0.7710 C.3   183  ALA183      0.1694
     93  C         47.3440   53.3980    0.4080 C.2   183  ALA183      0.2592
     94  O         47.7330   54.5170    0.0770 O.2   183  ALA183     -0.2718
     95  CB        48.9580   51.7380   -0.4930 C.3   183  ALA183      0.0304
     96  N         46.0580   53.0750    0.4700 N.am  184  TYR184     -0.1976
     97  CA        45.0380   54.0490    0.1220 C.3   184  TYR184      0.1639
     98  C         44.0110   54.2860    1.2110 C.2   184  TYR184      0.2290
     99  O         42.9340   54.8120    0.9390 O.2   184  TYR184     -0.2864
    100  CB        44.3270   53.6070   -1.1540 C.3   184  TYR184      0.0560
    101  CG        45.2750   53.3920   -2.3030 C.ar  184  TYR184     -0.0198
    102  CD1       45.8300   52.1390   -2.5510 C.ar  184  TYR184     -0.0009
    103  CD2       45.6390   54.4520   -3.1280 C.ar  184  TYR184     -0.0009
    104  CE1       46.7240   51.9460   -3.5950 C.ar  184  TYR184      0.0417
    105  CE2       46.5360   54.2720   -4.1760 C.ar  184  TYR184      0.0417
    106  CZ        47.0730   53.0170   -4.4060 C.ar  184  TYR184      0.1957
    107  OH        47.9410   52.8360   -5.4560 O.3   184  TYR184     -0.2866
    108  N         51.8700   54.3150    3.4520 N.3   208  THR208     -0.1218
    109  CA        52.7740   55.0280    2.5500 C.3   208  THR208      0.1862
    110  C         52.4890   56.5290    2.4870 C.2   208  THR208      0.2287
    111  O         51.3850   56.9750    2.8090 O.2   208  THR208     -0.2866
    112  CB        52.6610   54.4730    1.1180 C.3   208  THR208      0.1770
    113  OG1       53.5430   55.1930    0.2570 O.3   208  THR208     -0.2211
    114  CG2       51.2320   54.6340    0.5840 C.3   208  THR208      0.0375
    115  N         53.2960   58.0060   -0.4010 N.3   210  SER210     -0.1202
    116  CA        53.2690   58.1840   -1.8530 C.3   210  SER210      0.2020
    117  C         51.9800   58.7300   -2.4560 C.2   210  SER210      0.2618
    118  O         52.0180   59.6110   -3.3030 O.2   210  SER210     -0.2717
    119  CB        53.6420   56.8740   -2.5460 C.3   210  SER210      0.2103
    120  OG        54.9310   56.4590   -2.1300 O.3   210  SER210     -0.2182
    121  N         50.8620   58.1460   -2.1040 N.am  211  LYS211     -0.1975
    122  CA        49.4530   58.4220   -2.4420 C.3   211  LYS211      0.1639
    123  C         48.8550   59.7320   -1.9020 C.2   211  LYS211      0.2290
    124  O         49.1880   60.8190   -2.3750 O.2   211  LYS211     -0.2864
    125  CB        48.6730   57.1990   -2.2300 C.3   211  LYS211      0.0554
    126  CG        49.5060   55.9320   -2.5020 C.2   211  LYS211     -0.0270
    127  CD        49.7850   55.4160   -3.7580 C.2   211  LYS211     -0.0102
    128  CE        50.6410   54.1360   -3.8100 C.3   211  LYS211      0.1350
    129  NZ        51.0560   53.4100   -5.0150 N.3   211  LYS211     -0.1262
    130  N         55.3110   60.6110   -3.2450 N.3   216  ALA216     -0.1245
    131  CA        55.8340   59.3850   -3.8310 C.3   216  ALA216      0.1562
    132  C         57.3190   59.5470   -4.1070 C.2   216  ALA216      0.2260
    133  O         58.0840   58.5770   -4.0680 O.2   216  ALA216     -0.2867
    134  CB        55.0950   59.0690   -5.1270 C.3   216  ALA216      0.0290
    135  N         59.8520   58.0950   -1.4970 N.3   219  ARG219     -0.1231
    136  CA        60.0400   56.6590   -1.3140 C.3   219  ARG219      0.1694
    137  C         60.0230   56.3880    0.1850 C.2   219  ARG219      0.2592
    138  O         60.9500   55.7890    0.7260 O.2   219  ARG219     -0.2718
    139  CB        61.3840   56.2080   -1.9010 C.3   219  ARG219      0.0321
    140  CG        61.6040   56.5880   -3.3590 C.3   219  ARG219      0.0489
    141  CD        60.4580   56.1090   -4.2380 C.3   219  ARG219      0.2205
    142  NE        60.1810   54.6850   -4.0700 N.pl3 219  ARG219     -0.0865
    143  CZ        58.9990   54.2010   -3.6970 C.cat 219  ARG219      0.5346
    144  NH1       57.9900   55.0290   -3.4550 N.pl3 219  ARG219      0.1354
    145  NH2       58.8220   52.8920   -3.5720 N.pl3 219  ARG219      0.1354
    146  N         58.9720   56.8420    0.8560 N.am  220  CYS220     -0.1970
    147  CA        58.8500   56.6590    2.2980 C.3   220  CYS220      0.1712
    148  C         57.5490   55.9650    2.6980 C.2   220  CYS220      0.2296
    149  O         56.4540   56.4680    2.4270 O.2   220  CYS220     -0.2864
    150  CB        58.9380   58.0160    3.0040 C.3   220  CYS220      0.0983
    151  SG        58.9040   57.9270    4.8090 S.3   220  CYS220     -0.0798
    152  N         45.9490   53.4560  -17.1030 N.3   317  ARG317     -0.1245
    153  CA        46.5730   52.2050  -16.6980 C.3   317  ARG317      0.1563
    154  C         45.7170   51.0270  -17.1540 C.2   317  ARG317      0.2260
    155  O         44.6190   50.8160  -16.6470 O.2   317  ARG317     -0.2867
    156  CB        46.7500   52.2040  -15.1740 C.3   317  ARG317      0.0307
    157  CG        47.4290   50.9800  -14.5900 C.3   317  ARG317      0.0489
    158  CD        48.7110   50.6390  -15.3250 C.3   317  ARG317      0.2205
    159  NE        49.5900   49.7850  -14.5310 N.pl3 317  ARG317     -0.0865
    160  CZ        50.5540   50.2430  -13.7380 C.cat 317  ARG317      0.5346
    161  NH1       50.7700   51.5490  -13.6320 N.pl3 317  ARG317      0.1354
    162  NH2       51.3000   49.3950  -13.0480 N.pl3 317  ARG317      0.1354
    163  N         42.1910   51.4410  -15.4380 N.3   330  ARG330     -0.1245
    164  CA        42.2120   52.1420  -14.1570 C.3   330  ARG330      0.1563
    165  C         42.5560   53.6090  -14.3960 C.2   330  ARG330      0.2260
    166  O         43.5920   53.9310  -14.9840 O.2   330  ARG330     -0.2867
    167  CB        43.2430   51.5160  -13.2160 C.3   330  ARG330      0.0307
    168  CG        43.0480   51.8850  -11.7450 C.3   330  ARG330      0.0489
    169  CD        44.2520   51.4740  -10.9300 C.3   330  ARG330      0.2205
    170  NE        45.4550   52.1440  -11.4180 N.pl3 330  ARG330     -0.0865
    171  CZ        46.6880   51.8550  -11.0180 C.cat 330  ARG330      0.5346
    172  NH1       46.8840   50.8990  -10.1140 N.pl3 330  ARG330      0.1354
    173  NH2       47.7230   52.5240  -11.5180 N.pl3 330  ARG330      0.1354
@<TRIPOS>BOND
     1   154   153    1
     2   154   155    2
     3   152   153    1
     4   153   156    1
     5    26    24   am
     6    23    24    1
     7    23    20    1
     8    24    25    2
     9   163   164    1
    10   158   157    1
    11   158   159    1
    12   156   157    1
    13   166   165    2
    14    16    15    2
    15    15    14    1
    16   159   160    2
    17   165   164    1
    18    20    19    1
    19    20    21    1
    20   164   167    1
    21    13    14    1
    22     4     3    2
    23   160   161    1
    24   160   162    1
    25    14    17    1
    26     3     2    1
    27   167   168    1
    28    21    22    2
    29    21    27   am
    30    18    17    1
    31     1     2    1
    32     2     5    1
    33    27    28    1
    34   168   169    1
    35   173   171    1
    36   170   171    2
    37   170   169    1
    38    31    28    1
    39    28    29    1
    40   171   172    1
    41     5     6    1
    42     8     6   ar
    43     8    10   ar
    44     6     7   ar
    45    10    11   ar
    46     7     9   ar
    47    11    12    1
    48    11     9   ar
    49    29    30    2
    50    81    80    2
    51    80    82   am
    52    80    79    1
    53    77    78    2
    54    77    76    1
    55    59    58    1
    56    59    60    2
    57    66    64   ar
    58    66    67   ar
    59    64    62   ar
    60    58    57    1
    61    58    61    1
    62    76    79    1
    63    76    75    1
    64    68    67    1
    65    67    65   ar
    66   107   106    1
    67    62    61    1
    68    62    63   ar
    69   134   131    1
    70   129   128    1
    71    48    46   ar
    72   106   105   ar
    73   106   104   ar
    74    65    63   ar
    75   141   142    1
    76   141   140    1
    77   105   103   ar
    78   132   133    2
    79   132   131    1
    80   142   143    2
    81   131   130    1
    82   128   127    1
    83    47    46   ar
    84   127   126    2
    85   143   145    1
    86   143   144    1
    87    46    45    1
    88   104   102   ar
    89   140   139    1
    90   118   117    2
    91   103   101   ar
    92   102   101   ar
    93   119   120    1
    94   119   116    1
    95    45    42    1
    96   126   125    1
    97   117   121   am
    98   117   116    1
    99   122   125    1
   100   122   121    1
   101   122   123    1
   102   124   123    2
   103   101   100    1
   104   139   136    1
   105   116   115    1
   106    74    73    1
   107    73    70    1
   108   135   136    1
   109    56    54    1
   110   136   137    1
   111    42    41    1
   112    42    43    1
   113   100    97    1
   114    72    71    2
   115    90    88   ar
   116    55    53    1
   117    41    38   am
   118    95    92    1
   119    43    44    2
   120    70    71    1
   121    70    69    1
   122    54    53    1
   123    94    93    2
   124    53    50    1
   125    97    96    1
   126    97    98    1
   127   137   138    2
   128   137   146   am
   129   113   112    1
   130    93    96   am
   131    93    92    1
   132    88    89   ar
   133    88    87    1
   134   114   112    1
   135    38    39    2
   136    38    37    1
   137    33    32    1
   138    33    34    1
   139    92    91    1
   140   146   147    1
   141    36    34   am
   142    36    37    1
   143    99    98    2
   144   112   109    1
   145    40    37    1
   146    87    84    1
   147    34    35    2
   148    50    51    1
   149    50    49    1
   150    51    52    2
   151    86    85    2
   152   147   148    1
   153   147   150    1
   154   149   148    2
   155   110   109    1
   156   110   111    2
   157   109   108    1
   158    85    84    1
   159    84    83    1
   160   150   151    1
