@<TRIPOS>MOLECULE
tmp/1fggB00.pdb
 144 137 0 0 0
SMALL
GASTEIGER

@<TRIPOS>ATOM
      1  N         12.2280   16.7430   35.8630 N.3     8  PRO8       -0.2102
      2  CA        13.0180   17.9500   35.6270 C.3     8  PRO8        0.1504
      3  C         13.7180   17.7440   34.2830 C.2     8  PRO8        0.2576
      4  O         14.1560   16.6350   33.9760 O.2     8  PRO8       -0.2718
      5  CB        13.9900   17.9520   36.7990 C.3     8  PRO8        0.0282
      6  CG        14.2690   16.5110   36.9800 C.3     8  PRO8        0.0208
      7  CD        12.9040   15.8580   36.8300 C.3     8  PRO8        0.0893
      8  N         13.7840   18.7840   33.4660 N.am    9  THR9       -0.1939
      9  CA        14.4420   18.6690   32.1770 C.3     9  THR9        0.2028
     10  C         15.2100   19.9500   31.9040 C.2     9  THR9        0.2642
     11  O         14.9950   20.9640   32.5690 O.2     9  THR9       -0.2714
     12  CB        13.4240   18.4070   31.0290 C.3     9  THR9        0.1808
     13  OG1       14.1340   18.0090   29.8500 O.3     9  THR9       -0.2208
     14  CG2       12.6090   19.6610   30.7120 C.3     9  THR9        0.0379
     15  N         16.1190   19.8980   30.9400 N.am   10  TYR10      -0.1973
     16  CA        16.9200   21.0650   30.5850 C.3    10  TYR10       0.1639
     17  C         17.3110   20.9660   29.1180 C.2    10  TYR10       0.2290
     18  O         17.3300   19.8790   28.5410 O.2    10  TYR10      -0.2864
     19  CB        18.1850   21.1510   31.4580 C.3    10  TYR10       0.0560
     20  CG        19.2030   20.0610   31.1980 C.ar   10  TYR10      -0.0198
     21  CD1       20.4890   20.3740   30.7500 C.ar   10  TYR10      -0.0009
     22  CD2       18.8860   18.7140   31.4010 C.ar   10  TYR10      -0.0009
     23  CE1       21.4440   19.3710   30.5110 C.ar   10  TYR10       0.0417
     24  CE2       19.8280   17.7030   31.1650 C.ar   10  TYR10       0.0417
     25  CZ        21.1090   18.0420   30.7240 C.ar   10  TYR10       0.1957
     26  OH        22.0640   17.0590   30.5370 O.3    10  TYR10      -0.2866
     27  N         19.4520   20.7090   25.8470 N.3    12  ARG12      -0.1245
     28  CA        20.6790   20.1020   25.3550 C.3    12  ARG12       0.1563
     29  C         20.2580   19.3770   24.0760 C.2    12  ARG12       0.2260
     30  O         19.0630   19.1910   23.8330 O.2    12  ARG12      -0.2867
     31  CB        21.3060   19.1420   26.3770 C.3    12  ARG12       0.0307
     32  CG        20.6880   17.7570   26.4810 C.3    12  ARG12       0.0489
     33  CD        19.5270   17.7140   27.4520 C.3    12  ARG12       0.2205
     34  NE        19.3410   16.3700   27.9880 N.pl3  12  ARG12      -0.0865
     35  CZ        18.2810   15.9850   28.6930 C.cat  12  ARG12       0.5346
     36  NH1       17.3010   16.8470   28.9530 N.pl3  12  ARG12       0.1354
     37  NH2       18.2020   14.7390   29.1340 N.pl3  12  ARG12       0.1354
     38  N         14.7020   23.4790   33.6370 N.3    39  ASP39      -0.1239
     39  CA        15.8110   24.1320   34.3150 C.3    39  ASP39       0.1674
     40  C         16.2400   25.1890   33.2970 C.2    39  ASP39       0.2266
     41  O         17.1820   24.9830   32.5200 O.2    39  ASP39      -0.2867
     42  CB        16.9400   23.1270   34.5580 C.3    39  ASP39       0.1410
     43  CG        18.1810   23.7610   35.1570 C.2    39  ASP39       0.3668
     44  OD1       18.1540   24.9680   35.4640 O.co2  39  ASP39      -0.2456
     45  OD2       19.1920   23.0430   35.3250 O.co2  39  ASP39      -0.2456
     46  N         21.9130   17.4500   40.1960 N.3    69  ARG69      -0.1231
     47  CA        21.1360   18.3370   39.3410 C.3    69  ARG69       0.1694
     48  C         19.6590   17.9630   39.2570 C.2    69  ARG69       0.2592
     49  O         19.2690   16.8240   39.5140 O.2    69  ARG69      -0.2718
     50  CB        21.7480   18.3750   37.9360 C.3    69  ARG69       0.0321
     51  CG        22.0080   16.9980   37.3230 C.3    69  ARG69       0.0489
     52  CD        23.4220   16.5070   37.5850 C.3    69  ARG69       0.2205
     53  NE        23.7690   15.3590   36.7460 N.pl3  69  ARG69      -0.0865
     54  CZ        23.8680   15.3940   35.4150 C.cat  69  ARG69       0.5346
     55  NH1       23.6490   16.5230   34.7520 N.pl3  69  ARG69       0.1354
     56  NH2       24.1910   14.2940   34.7410 N.pl3  69  ARG69       0.1354
     57  N         18.8440   18.9470   38.9010 N.am   70  GLY70      -0.1957
     58  CA        17.4140   18.7370   38.7960 C.3    70  GLY70       0.1869
     59  C         16.7220   18.8590   40.1410 C.2    70  GLY70       0.2309
     60  O         15.5160   18.6590   40.2440 O.2    70  GLY70      -0.2863
     61  N         14.3440   22.0630   40.5620 N.3    73  GLN73      -0.1231
     62  CA        13.1870   21.8310   39.6970 C.3    73  GLN73       0.1698
     63  C         12.1720   20.9020   40.3570 C.2    73  GLN73       0.2592
     64  O         10.9680   21.1570   40.3130 O.2    73  GLN73      -0.2718
     65  CB        13.6210   21.2370   38.3540 C.3    73  GLN73       0.0381
     66  CG        14.4440   22.1660   37.4840 C.3    73  GLN73       0.0905
     67  CD        15.7790   22.5240   38.1070 C.2    73  GLN73       0.2608
     68  OE1       16.4620   21.6670   38.6690 O.2    73  GLN73      -0.2717
     69  NE2       16.1670   23.7920   37.9940 N.am   73  GLN73      -0.0878
     70  N         12.6570   19.8220   40.9620 N.am   74  ARG74      -0.1980
     71  CA        11.7690   18.8830   41.6270 C.3    74  ARG74       0.1597
     72  C         11.0880   19.5390   42.8200 C.2    74  ARG74       0.2287
     73  O          9.9050   19.3020   43.0690 O.2    74  ARG74      -0.2864
     74  CB        12.5340   17.6520   42.1090 C.3    74  ARG74       0.0334
     75  CG        13.1640   16.8160   41.0120 C.3    74  ARG74       0.0492
     76  CD        13.6220   15.4890   41.5850 C.3    74  ARG74       0.2205
     77  NE        14.4060   14.7060   40.6430 N.pl3  74  ARG74      -0.0865
     78  CZ        15.6960   14.8960   40.4060 C.cat  74  ARG74       0.5346
     79  NH1       16.3560   15.8480   41.0480 N.pl3  74  ARG74       0.1354
     80  NH2       16.3290   14.1300   39.5290 N.pl3  74  ARG74       0.1354
     81  N         13.2830   10.9870   36.1300 N.3   107  ASP107     -0.1225
     82  CA        14.2610   11.7560   35.3600 C.3   107  ASP107      0.1805
     83  C         13.9270   11.5540   33.8830 C.2   107  ASP107      0.2598
     84  O         13.4080   10.4970   33.4950 O.2   107  ASP107     -0.2718
     85  CB        15.6840   11.2740   35.6730 C.3   107  ASP107      0.1424
     86  CG        16.1270   11.6410   37.0880 C.2   107  ASP107      0.3668
     87  OD1       17.2170   11.2100   37.4990 O.co2 107  ASP107     -0.2456
     88  OD2       15.3880   12.3690   37.7880 O.co2 107  ASP107     -0.2456
     89  N         14.2340   12.5470   33.0530 N.am  108  ASP108     -0.1960
     90  CA        13.8900   12.4570   31.6410 C.3   108  ASP108      0.1840
     91  C         14.6920   11.5160   30.7460 C.2   108  ASP108      0.2622
     92  O         14.4170   11.4510   29.5460 O.2   108  ASP108     -0.2715
     93  CB        13.8270   13.8670   31.0170 C.3   108  ASP108      0.1450
     94  CG        15.2010   14.4920   30.7570 C.2   108  ASP108      0.3671
     95  OD1       16.2380   13.9830   31.2330 O.co2 108  ASP108     -0.2456
     96  OD2       15.2340   15.5310   30.0600 O.co2 108  ASP108     -0.2456
     97  N         15.6570   10.7770   31.2990 N.am  109  ASP109     -0.1971
     98  CA        16.4380    9.8520   30.4610 C.3   109  ASP109      0.1709
     99  C         16.3390    8.3660   30.8090 C.2   109  ASP109      0.2293
    100  O         16.9470    7.5270   30.1400 O.2   109  ASP109     -0.2864
    101  CB        17.9200   10.2530   30.4110 C.3   109  ASP109      0.1436
    102  CG        18.6250   10.1540   31.7660 C.2   109  ASP109      0.3671
    103  OD1       19.8760   10.1270   31.7450 O.co2 109  ASP109     -0.2456
    104  OD2       17.9660   10.1230   32.8370 O.co2 109  ASP109     -0.2456
    105  N         17.7560    4.5600   44.1230 N.3   163  ASP163     -0.1239
    106  CA        17.8280    5.6200   43.1400 C.3   163  ASP163      0.1674
    107  C         16.5100    6.3710   43.0530 C.2   163  ASP163      0.2266
    108  O         15.4620    5.8630   43.4490 O.2   163  ASP163     -0.2867
    109  CB        18.1780    5.0430   41.7720 C.3   163  ASP163      0.1410
    110  CG        18.1520    6.0850   40.6910 C.2   163  ASP163      0.3668
    111  OD1       17.1770    6.0980   39.9100 O.co2 163  ASP163     -0.2456
    112  OD2       19.1000    6.9050   40.6370 O.co2 163  ASP163     -0.2456
    113  N         25.2970   13.6400   45.6580 N.3   188  ARG188     -0.1245
    114  CA        24.6320   12.6310   44.8310 C.3   188  ARG188      0.1563
    115  C         23.9720   11.4470   45.5480 C.2   188  ARG188      0.2260
    116  O         22.7480   11.2810   45.4930 O.2   188  ARG188     -0.2867
    117  CB        25.6090   12.1110   43.7690 C.3   188  ARG188      0.0307
    118  CG        25.7630   13.0030   42.6090 C.3   188  ARG188      0.0489
    119  CD        26.3920   12.1480   41.4400 C.3   188  ARG188      0.2205
    120  NE        26.6410   13.2310   40.4950 N.pl3 188  ARG188     -0.0865
    121  CZ        25.7240   13.6500   39.6360 C.cat 188  ARG188      0.5346
    122  NH1       24.5520   13.0690   39.4800 N.pl3 188  ARG188      0.1354
    123  NH2       26.0610   14.7070   38.9290 N.pl3 188  ARG188      0.1354
    124  N         17.8140    2.6500   34.5320 N.3   219  HIS219     -0.1241
    125  CA        18.5500    3.9060   34.6150 C.3   219  HIS219      0.1621
    126  C         19.4420    4.1020   33.3810 C.2   219  HIS219      0.2264
    127  O         20.6690    4.1840   33.4780 O.2   219  HIS219     -0.2867
    128  CB        19.3770    3.9230   35.9090 C.3   219  HIS219      0.0745
    129  CG        20.0490    5.2300   36.1920 C.ar  219  HIS219      0.0817
    130  ND1       21.2680    5.5760   35.6480 N.ar  219  HIS219     -0.2268
    131  CD2       19.6660    6.2810   36.9570 C.ar  219  HIS219      0.1154
    132  CE1       21.6090    6.7820   36.0660 C.ar  219  HIS219      0.1986
    133  NE2       20.6540    7.2310   36.8600 N.ar  219  HIS219     -0.2212
    134  N         21.0330    6.0420   30.1120 N.3   221  ARG221     -0.1245
    135  CA        21.5620    7.3860   29.8920 C.3   221  ARG221      0.1563
    136  C         21.8460    7.5070   28.4000 C.2   221  ARG221      0.2260
    137  O         22.1860    6.5220   27.7460 O.2   221  ARG221     -0.2867
    138  CB        22.8240    7.6160   30.7370 C.3   221  ARG221      0.0307
    139  CG        22.5050    7.8500   32.2140 C.3   221  ARG221      0.0489
    140  CD        23.7400    7.9000   33.1020 C.3   221  ARG221      0.2205
    141  NE        24.7110    8.8880   32.6470 N.pl3 221  ARG221     -0.0865
    142  CZ        24.5380   10.2060   32.7010 C.cat 221  ARG221      0.5346
    143  NH1       23.4230   10.7170   33.2000 N.pl3 221  ARG221      0.1354
    144  NH2       25.4830   11.0160   32.2400 N.pl3 221  ARG221      0.1354
@<TRIPOS>BOND
     1    30    29    2
     2    29    28    1
     3    28    27    1
     4    28    31    1
     5    31    32    1
     6    32    33    1
     7    33    34    1
     8   137   136    2
     9    34    35    2
    10   136   135    1
    11    18    17    2
    12    35    36    1
    13    35    37    1
    14    17    16    1
    15    92    91    2
    16    13    12    1
    17   135   134    1
    18   135   138    1
    19    96    94   ar
    20   100    99    2
    21   101    98    1
    22   101   102    1
    23    98    99    1
    24    98    97    1
    25    23    25   ar
    26    23    21   ar
    27    26    25    1
    28    16    15    1
    29    16    19    1
    30    14    12    1
    31    25    24   ar
    32   138   139    1
    33    91    97   am
    34    91    90    1
    35    21    20   ar
    36    94    93    1
    37    94    95   ar
    38    15    10   am
    39    93    90    1
    40    12     9    1
    41    24    22   ar
    42    20    22   ar
    43    20    19    1
    44    90    89    1
    45   103   102   ar
    46   102   104   ar
    47    10     9    1
    48    10    11    2
    49     9     8    1
    50   139   140    1
    51   144   142    1
    52    41    40    2
    53   141   142    2
    54   141   140    1
    55   142   143    1
    56    89    83   am
    57    40    39    1
    58   126   127    2
    59   126   125    1
    60     8     3   am
    61    84    83    2
    62    38    39    1
    63    83    82    1
    64     4     3    2
    65     3     2    1
    66    39    42    1
    67   124   125    1
    68    42    43    1
    69   125   128    1
    70    56    54    1
    71    55    54    1
    72    43    45   ar
    73    43    44   ar
    74    82    85    1
    75    82    81    1
    76    54    53    2
    77     2     1    1
    78     2     5    1
    79   130   132   ar
    80   130   129   ar
    81    85    86    1
    82     1     7    1
    83   128   129    1
    84   132   133   ar
    85   129   131   ar
    86    53    52    1
    87     5     6    1
    88     7     6    1
    89   133   131   ar
    90    86    87   ar
    91    86    88   ar
    92    51    52    1
    93    51    50    1
    94    66    67    1
    95    66    65    1
    96    50    47    1
    97    69    67   am
    98    67    68    2
    99    65    62    1
   100    58    57    1
   101    58    59    1
   102    57    48   am
   103   123   121    1
   104    48    47    1
   105    48    49    2
   106    47    46    1
   107   122   121    1
   108    80    78    1
   109   121   120    2
   110    62    63    1
   111    62    61    1
   112   111   110   ar
   113    59    60    2
   114    64    63    2
   115    63    70   am
   116    78    77    2
   117    78    79    1
   118   120   119    1
   119   112   110   ar
   120    77    76    1
   121   110   109    1
   122    70    71    1
   123    75    76    1
   124    75    74    1
   125   119   118    1
   126    71    74    1
   127    71    72    1
   128   109   106    1
   129   118   117    1
   130    72    73    2
   131   107   106    1
   132   107   108    2
   133   106   105    1
   134   117   114    1
   135   114   115    1
   136   114   113    1
   137   116   115    2
