@<TRIPOS>MOLECULE
tmp/1fgiB00.pdb
 162 155 0 0 0
SMALL
GASTEIGER

@<TRIPOS>ATOM
      1  N         67.0790    5.5790    2.0750 N.3    24  LEU24      -0.1231
      2  CA        66.2060    4.7450    2.8860 C.3    24  LEU24       0.1693
      3  C         64.8840    5.4280    3.1960 C.2    24  LEU24       0.2593
      4  O         64.8440    6.3960    3.9550 O.2    24  LEU24      -0.2718
      5  CB        66.8980    4.3570    4.1860 C.3    24  LEU24       0.0284
      6  CG        67.9610    3.2810    4.0150 C.3    24  LEU24       0.0019
      7  CD1       68.6580    3.0040    5.3380 C.3    24  LEU24       0.0001
      8  CD2       67.2960    2.0390    3.4680 C.3    24  LEU24       0.0001
      9  N         63.8040    4.9220    2.6090 N.am   25  GLY25      -0.1942
     10  CA        62.4980    5.5020    2.8570 C.3    25  GLY25       0.2014
     11  C         62.2100    6.7700    2.0760 C.2    25  GLY25       0.2639
     12  O         62.7320    6.9540    0.9730 O.2    25  GLY25      -0.2714
     13  N         61.4030    7.6580    2.6570 N.am   26  GLU26      -0.1963
     14  CA        61.0300    8.8940    1.9750 C.3    26  GLU26       0.1733
     15  C         61.0150   10.1610    2.8210 C.2    26  GLU26       0.2617
     16  O         60.0580   10.9380    2.7630 O.2    26  GLU26      -0.2715
     17  CB        59.6680    8.7270    1.2890 C.3    26  GLU26       0.0429
     18  CG        58.5550    8.3860    2.2630 C.3    26  GLU26       0.1163
     19  CD        57.2140    8.1670    1.5870 C.2    26  GLU26       0.3649
     20  OE1       57.1690    8.2080    0.3230 O.co2  26  GLU26      -0.2457
     21  OE2       56.2080    7.9660    2.2930 O.co2  26  GLU26      -0.2457
     22  N         62.0620   10.3640    3.6150 N.am   27  GLY27      -0.1940
     23  CA        62.1600   11.5710    4.4180 C.3    27  GLY27       0.2014
     24  C         61.4160   11.6280    5.7280 C.2    27  GLY27       0.2639
     25  O         61.3980   12.6710    6.3720 O.2    27  GLY27      -0.2714
     26  N         60.8160   10.5210    6.1420 N.am   28  ALA28      -0.1963
     27  CA        60.0910   10.5050    7.4060 C.3    28  ALA28       0.1728
     28  C         61.0690   10.7750    8.5400 C.2    28  ALA28       0.2616
     29  O         60.7020   11.3380    9.5640 O.2    28  ALA28      -0.2715
     30  CB        59.4060    9.1610    7.6110 C.3    28  ALA28       0.0334
     31  N         62.3220   10.3810    8.3380 N.am   29  PHE29      -0.1974
     32  CA        63.3540   10.5760    9.3420 C.3    29  PHE29       0.1639
     33  C         64.4320   11.5200    8.8000 C.2    29  PHE29       0.2290
     34  O         65.5930   11.4500    9.1900 O.2    29  PHE29      -0.2864
     35  CB        63.9620    9.2210    9.7260 C.3    29  PHE29       0.0560
     36  CG        62.9890    8.2730   10.3990 C.ar   29  PHE29      -0.0200
     37  CD1       62.7030    8.3910   11.7480 C.ar   29  PHE29      -0.0042
     38  CD2       62.3920    7.2430    9.6860 C.ar   29  PHE29      -0.0042
     39  CE1       61.8410    7.4950   12.3800 C.ar   29  PHE29      -0.0003
     40  CE2       61.5290    6.3440   10.3080 C.ar   29  PHE29      -0.0003
     41  CZ        61.2550    6.4730   11.6580 C.ar   29  PHE29      -0.0000
     42  N         68.1180   10.0520    5.1830 N.3    32  VAL32      -0.1245
     43  CA        68.8140    8.8490    5.6060 C.3    32  VAL32       0.1561
     44  C         69.1470    8.0490    4.3470 C.2    32  VAL32       0.2260
     45  O         68.3780    8.0390    3.3820 O.2    32  VAL32      -0.2867
     46  CB        67.9120    7.9690    6.5370 C.3    32  VAL32       0.0252
     47  CG1       68.6800    6.7400    7.0550 C.3    32  VAL32       0.0019
     48  CG2       67.3750    8.7960    7.6970 C.3    32  VAL32       0.0019
     49  N         72.8960    2.7180    8.2640 N.3    48  ALA48      -0.1245
     50  CA        72.0150    3.7510    7.7590 C.3    48  ALA48       0.1562
     51  C         72.7180    5.0300    8.1660 C.2    48  ALA48       0.2260
     52  O         73.2260    5.1190    9.2870 O.2    48  ALA48      -0.2867
     53  CB        70.6410    3.6650    8.4130 C.3    48  ALA48       0.0290
     54  N         72.3880    9.1730    8.5160 N.3    50  LYS50      -0.1245
     55  CA        71.5280   10.3500    8.5770 C.3    50  LYS50       0.1561
     56  C         72.4060   11.5540    8.2550 C.2    50  LYS50       0.2260
     57  O         73.5660   11.6120    8.6710 O.2    50  LYS50      -0.2867
     58  CB        70.9160   10.4990    9.9730 C.3    50  LYS50       0.0271
     59  CG        70.1330    9.2810   10.4280 C.3    50  LYS50       0.0035
     60  CD        69.4000    9.5170   11.7480 C.3    50  LYS50       0.0206
     61  CE        68.2790   10.5620   11.6130 C.3    50  LYS50       0.1093
     62  NZ        67.3130   10.5460   12.7820 N.3    50  LYS50      -0.1314
     63  N         67.4830    2.2090   18.1540 N.3    81  ILE81      -0.1245
     64  CA        68.4360    2.4060   17.0640 C.3    81  ILE81       0.1561
     65  C         69.6870    2.9690   17.7370 C.2    81  ILE81       0.2260
     66  O         69.6320    3.9860   18.4060 O.2    81  ILE81      -0.2867
     67  CB        67.9010    3.3850   15.9960 C.3    81  ILE81       0.0252
     68  CG1       66.8070    2.7130   15.1700 C.3    81  ILE81       0.0019
     69  CG2       69.0190    3.8210   15.0620 C.3    81  ILE81       0.0019
     70  CD1       67.3360    1.6690   14.2000 C.3    81  ILE81       0.0001
     71  N         74.1300    5.2050   12.0570 N.3    97  VAL97      -0.1231
     72  CA        73.3110    4.4250   12.9720 C.3    97  VAL97       0.1692
     73  C         73.0080    3.0550   12.3680 C.2    97  VAL97       0.2592
     74  O         73.3560    2.7790   11.2100 O.2    97  VAL97      -0.2718
     75  CB        71.9880    5.1370   13.2970 C.3    97  VAL97       0.0266
     76  CG1       72.2420    6.3380   14.1590 C.3    97  VAL97       0.0020
     77  CG2       71.2880    5.5290   12.0180 C.3    97  VAL97       0.0020
     78  N         72.3530    2.2020   13.1510 N.am   98  GLU98      -0.1966
     79  CA        72.0040    0.8500   12.7190 C.3    98  GLU98       0.1733
     80  C         70.9910    0.7370   11.5760 C.2    98  GLU98       0.2616
     81  O         70.0540    1.5300   11.4620 O.2    98  GLU98      -0.2715
     82  CB        71.4880    0.0580   13.9060 C.3    98  GLU98       0.0429
     83  CG        72.4180    0.0480   15.0660 C.3    98  GLU98       0.1163
     84  CD        72.0280   -0.9750   16.0900 C.2    98  GLU98       0.3649
     85  OE1       71.0310   -0.7460   16.8080 O.co2  98  GLU98      -0.2457
     86  OE2       72.7270   -2.0090   16.1740 O.co2  98  GLU98      -0.2457
     87  N         71.1680   -0.2930   10.7580 N.am   99  TYR99      -0.1960
     88  CA        70.2840   -0.5460    9.6360 C.3    99  TYR99       0.1771
     89  C         69.1480   -1.4680   10.0710 C.2    99  TYR99       0.2619
     90  O         69.3690   -2.4420   10.8000 O.2    99  TYR99      -0.2715
     91  CB        71.0630   -1.1840    8.4830 C.3    99  TYR99       0.0574
     92  CG        70.2550   -1.4010    7.2290 C.ar   99  TYR99      -0.0198
     93  CD1       69.5100   -0.3700    6.6790 C.ar   99  TYR99      -0.0009
     94  CD2       70.2530   -2.6280    6.5830 C.ar   99  TYR99      -0.0009
     95  CE1       68.7770   -0.5510    5.5080 C.ar   99  TYR99       0.0417
     96  CE2       69.5240   -2.8250    5.4040 C.ar   99  TYR99       0.0417
     97  CZ        68.7860   -1.7790    4.8760 C.ar   99  TYR99       0.1957
     98  OH        68.0330   -1.9540    3.7340 O.3    99  TYR99      -0.2866
     99  N         67.9390   -1.1380    9.6250 N.am  100  ALA100     -0.1963
    100  CA        66.7370   -1.9020    9.9200 C.3   100  ALA100      0.1728
    101  C         66.1310   -2.2870    8.5730 C.2   100  ALA100      0.2617
    102  O         65.2200   -1.6310    8.0750 O.2   100  ALA100     -0.2715
    103  CB        65.7750   -1.0510   10.7130 C.3   100  ALA100      0.0334
    104  N         66.6360   -3.3680    7.9950 N.am  101  SER101     -0.1936
    105  CA        66.1940   -3.8310    6.6840 C.3   101  SER101      0.2055
    106  C         64.7070   -3.8540    6.3750 C.2   101  SER101      0.2643
    107  O         64.3170   -3.5670    5.2440 O.2   101  SER101     -0.2714
    108  CB        66.7840   -5.2030    6.3790 C.3   101  SER101      0.2130
    109  OG        66.4830   -6.1240    7.4050 O.3   101  SER101     -0.2179
    110  N         63.8740   -4.1640    7.3580 N.am  102  LYS102     -0.1963
    111  CA        62.4410   -4.2410    7.1040 C.3   102  LYS102      0.1728
    112  C         61.6320   -2.9720    7.3400 C.2   102  LYS102      0.2617
    113  O         60.4150   -3.0320    7.5540 O.2   102  LYS102     -0.2715
    114  CB        61.8460   -5.4270    7.8500 C.3   102  LYS102      0.0311
    115  CG        62.4230   -6.7520    7.3690 C.3   102  LYS102      0.0038
    116  CD        62.1650   -7.8630    8.3550 C.3   102  LYS102      0.0206
    117  CE        62.7300   -9.1630    7.8380 C.3   102  LYS102      0.1093
    118  NZ        62.5300  -10.2480    8.8270 N.3   102  LYS102     -0.1314
    119  N         62.3040   -1.8250    7.2670 N.am  103  GLY103     -0.1940
    120  CA        61.6280   -0.5520    7.4420 C.3   103  GLY103      0.2014
    121  C         60.8630   -0.3970    8.7400 C.2   103  GLY103      0.2638
    122  O         61.1890   -1.0450    9.7330 O.2   103  GLY103     -0.2714
    123  N         59.8550    0.4750    8.7380 N.am  104  ASN104     -0.1972
    124  CA        59.0730    0.7190    9.9370 C.3   104  ASN104      0.1688
    125  C         58.0420   -0.3530   10.2320 C.2   104  ASN104      0.2292
    126  O         57.6310   -1.1140    9.3530 O.2   104  ASN104     -0.2864
    127  CB        58.4620    2.1290    9.9530 C.3   104  ASN104      0.1181
    128  CG        57.2620    2.2840    9.0260 C.2   104  ASN104      0.2629
    129  OD1       56.1880    1.7130    9.2590 O.2   104  ASN104     -0.2716
    130  ND2       57.4140    3.1180    8.0130 N.am  104  ASN104     -0.0877
    131  N         55.2440    3.7320   13.3180 N.3   147  ARG147     -0.1245
    132  CA        56.0380    4.4070   12.2930 C.3   147  ARG147      0.1563
    133  C         57.4640    4.7180   12.7860 C.2   147  ARG147      0.2260
    134  O         58.4130    4.7020   12.0000 O.2   147  ARG147     -0.2867
    135  CB        55.3570    5.7150   11.8600 C.3   147  ARG147      0.0307
    136  CG        55.0940    6.6880   13.0000 C.3   147  ARG147      0.0489
    137  CD        54.7370    8.0810   12.4950 C.3   147  ARG147      0.2205
    138  NE        54.4190    8.9930   13.5950 N.pl3 147  ARG147     -0.0865
    139  CZ        53.1910    9.2260   14.0470 C.cat 147  ARG147      0.5346
    140  NH1       52.1400    8.6320   13.4940 N.pl3 147  ARG147      0.1354
    141  NH2       53.0230   10.0010   15.1050 N.pl3 147  ARG147      0.1354
    142  N         61.5800    0.7060   13.8950 N.3   150  LEU150     -0.1245
    143  CA        62.0900    0.0530   12.6940 C.3   150  LEU150      0.1561
    144  C         62.3590   -1.4060   13.0190 C.2   150  LEU150      0.2260
    145  O         62.6110   -1.7300   14.1690 O.2   150  LEU150     -0.2867
    146  CB        63.3600    0.7550   12.2190 C.3   150  LEU150      0.0270
    147  CG        63.2610    2.2850   12.1080 C.3   150  LEU150      0.0019
    148  CD1       64.6390    2.8470   11.9400 C.3   150  LEU150      0.0001
    149  CD2       62.3420    2.7280   10.9700 C.3   150  LEU150      0.0001
    150  N         63.0050    4.3600   17.2590 N.3   160  ALA160     -0.1231
    151  CA        63.7100    5.3830   16.4820 C.3   160  ALA160      0.1694
    152  C         63.1890    6.7780   16.8510 C.2   160  ALA160      0.2592
    153  O         62.1120    6.9040   17.4380 O.2   160  ALA160     -0.2718
    154  CB        63.5320    5.1270   14.9880 C.3   160  ALA160      0.0304
    155  N         63.9580    7.8180   16.5280 N.am  161  ASP161     -0.1974
    156  CA        63.5910    9.2160   16.8160 C.3   161  ASP161      0.1709
    157  C         63.5930    9.6070   18.2950 C.2   161  ASP161      0.2293
    158  O         63.2720   10.7390   18.6440 O.2   161  ASP161     -0.2864
    159  CB        62.2310    9.5730   16.2040 C.3   161  ASP161      0.1436
    160  CG        62.3480   10.2960   14.8700 C.2   161  ASP161      0.3671
    161  OD1       63.4800   10.5810   14.4210 O.co2 161  ASP161     -0.2456
    162  OD2       61.2930   10.5930   14.2680 O.co2 161  ASP161     -0.2456
@<TRIPOS>BOND
     1    20    19   ar
     2    12    11    2
     3    17    14    1
     4    17    18    1
     5    19    18    1
     6    19    21   ar
     7    14    13    1
     8    14    15    1
     9     1     2    1
    10    11    13   am
    11    11    10    1
    12     9    10    1
    13     9     3   am
    14    16    15    2
    15    15    22   am
    16     2     3    1
    17     2     5    1
    18     3     4    2
    19    45    44    2
    20     8     6    1
    21    22    23    1
    22    98    97    1
    23     6     5    1
    24     6     7    1
    25    44    43    1
    26    23    24    1
    27    97    96   ar
    28    97    95   ar
    29    42    43    1
    30   107   106    2
    31    96    94   ar
    32    95    93   ar
    33    43    46    1
    34    24    26   am
    35    24    25    2
    36    26    27    1
    37   106   105    1
    38   106   110   am
    39   108   105    1
    40   108   109    1
    41    46    47    1
    42    46    48    1
    43    94    92   ar
    44    93    92   ar
    45   105   104    1
    46   111   112    1
    47   111   110    1
    48   111   114    1
    49    92    91    1
    50   119   112   am
    51   119   120    1
    52   112   113    2
    53   115   114    1
    54   115   116    1
    55    27    30    1
    56    27    28    1
    57   120   121    1
    58    50    51    1
    59    50    49    1
    60    50    53    1
    61   117   116    1
    62   117   118    1
    63   104   101   am
    64   130   128   am
    65   102   101    2
    66    51    52    2
    67    56    55    1
    68    56    57    2
    69    31    28   am
    70    31    32    1
    71    91    88    1
    72    54    55    1
    73    28    29    2
    74   101   100    1
    75    55    58    1
    76   123   121   am
    77   123   124    1
    78   121   122    2
    79    33    34    2
    80    33    32    1
    81   128   129    2
    82   128   127    1
    83    32    35    1
    84   126   125    2
    85    99   100    1
    86    99    89   am
    87    88    89    1
    88    88    87    1
    89    38    40   ar
    90    38    36   ar
    91    35    36    1
    92   100   103    1
    93   124   127    1
    94   124   125    1
    95    58    59    1
    96    89    90    2
    97    40    41   ar
    98    36    37   ar
    99    59    60    1
   100    87    80   am
   101   149   147    1
   102    74    73    2
   103    81    80    2
   104    80    79    1
   105    61    60    1
   106    61    62    1
   107    41    39   ar
   108    37    39   ar
   109   135   132    1
   110   135   136    1
   111   148   147    1
   112   134   133    2
   113    77    75    1
   114    71    72    1
   115   147   146    1
   116   146   143    1
   117   132   133    1
   118   132   131    1
   119    73    72    1
   120    73    78   am
   121   137   136    1
   122   137   138    1
   123   143   144    1
   124   143   142    1
   125    79    78    1
   126    79    82    1
   127    72    75    1
   128   144   145    2
   129    75    76    1
   130   140   139    1
   131   138   139    2
   132    82    83    1
   133   139   141    1
   134    70    68    1
   135   162   160   ar
   136   161   160   ar
   137   160   159    1
   138   154   151    1
   139    69    67    1
   140    83    84    1
   141    68    67    1
   142    67    64    1
   143    84    86   ar
   144    84    85   ar
   145   159   156    1
   146   151   152    1
   147   151   150    1
   148   155   156    1
   149   155   152   am
   150   156   157    1
   151   152   153    2
   152    64    65    1
   153    64    63    1
   154    65    66    2
   155   157   158    2
