@<TRIPOS>MOLECULE
tmp/1fgiA00.pdb
 171 163 0 0 0
SMALL
GASTEIGER

@<TRIPOS>ATOM
      1  N          6.3740    8.8080   25.9560 N.3    21  LEU21      -0.1231
      2  CA         7.4070    7.8060   25.7320 C.3    21  LEU21       0.1693
      3  C          8.5330    8.4330   24.9260 C.2    21  LEU21       0.2593
      4  O          8.2860    9.1220   23.9410 O.2    21  LEU21      -0.2718
      5  CB         6.8390    6.6080   24.9830 C.3    21  LEU21       0.0284
      6  CG         5.9540    5.6660   25.7920 C.3    21  LEU21       0.0019
      7  CD1        5.2660    4.6670   24.8800 C.3    21  LEU21       0.0001
      8  CD2        6.8040    4.9520   26.8120 C.3    21  LEU21       0.0001
      9  N          9.7670    8.2160   25.3640 N.am   22  GLY22      -0.1942
     10  CA        10.9130    8.7620   24.6620 C.3    22  GLY22       0.2014
     11  C         11.1220   10.2620   24.8130 C.2    22  GLY22       0.2639
     12  O         10.4170   10.9420   25.5610 O.2    22  GLY22      -0.2714
     13  N         12.1040   10.7780   24.0830 N.am   23  GLU23      -0.1963
     14  CA        12.4370   12.1930   24.1280 C.3    23  GLU23       0.1733
     15  C         12.0390   12.9390   22.8580 C.2    23  GLU23       0.2617
     16  O         12.4970   14.0620   22.6390 O.2    23  GLU23      -0.2715
     17  CB        13.9360   12.3730   24.3980 C.3    23  GLU23       0.0429
     18  CG        14.8060   11.6070   23.4140 C.3    23  GLU23       0.1163
     19  CD        15.1820   10.2290   23.9180 C.2    23  GLU23       0.3649
     20  OE1       14.3410    9.5880   24.5820 O.co2  23  GLU23      -0.2457
     21  OE2       16.3190    9.7860   23.6510 O.co2  23  GLU23      -0.2457
     22  N         11.2400   12.2970   22.0030 N.am   24  GLY24      -0.1940
     23  CA        10.7730   12.9420   20.7820 C.3    24  GLY24       0.2014
     24  C         11.3210   12.5250   19.4240 C.2    24  GLY24       0.2639
     25  O         11.0420   13.1940   18.4220 O.2    24  GLY24      -0.2714
     26  N         12.0740   11.4290   19.3650 N.am   25  ALA25      -0.1963
     27  CA        12.6380   10.9620   18.0950 C.3    25  ALA25       0.1728
     28  C         11.5420   10.6190   17.0930 C.2    25  ALA25       0.2616
     29  O         11.5510   11.0940   15.9580 O.2    25  ALA25      -0.2715
     30  CB        13.5270    9.7580   18.3200 C.3    25  ALA25       0.0334
     31  N         10.5980    9.7900   17.5270 N.am   26  PHE26      -0.1974
     32  CA         9.4730    9.3720   16.6950 C.3    26  PHE26       0.1639
     33  C          8.3100   10.3520   16.8610 C.2    26  PHE26       0.2290
     34  O          7.1420    9.9590   16.8320 O.2    26  PHE26      -0.2864
     35  CB         9.0050    7.9770   17.1080 C.3    26  PHE26       0.0560
     36  CG        10.0720    6.9330   17.0410 C.ar   26  PHE26      -0.0200
     37  CD1       10.4420    6.3780   15.8230 C.ar   26  PHE26      -0.0042
     38  CD2       10.6830    6.4760   18.1960 C.ar   26  PHE26      -0.0042
     39  CE1       11.3950    5.3800   15.7580 C.ar   26  PHE26      -0.0003
     40  CE2       11.6370    5.4780   18.1400 C.ar   26  PHE26      -0.0003
     41  CZ        11.9940    4.9300   16.9160 C.ar   26  PHE26      -0.0000
     42  N          4.9600   10.8400   21.0500 N.3    29  VAL29      -0.1245
     43  CA         4.3180    9.5610   21.3560 C.3    29  VAL29       0.1561
     44  C          4.0810    9.4510   22.8530 C.2    29  VAL29       0.2260
     45  O          4.8970    9.9100   23.6550 O.2    29  VAL29      -0.2867
     46  CB         5.1980    8.3540   20.9330 C.3    29  VAL29       0.0252
     47  CG1        4.4640    7.0470   21.1840 C.3    29  VAL29       0.0019
     48  CG2        5.5890    8.4570   19.4800 C.3    29  VAL29       0.0019
     49  N          0.8920    2.5840   22.3350 N.3    45  ALA45      -0.1245
     50  CA         1.6390    3.8190   22.1730 C.3    45  ALA45       0.1562
     51  C          0.7560    4.6240   21.2540 C.2    45  ALA45       0.2260
     52  O          0.1700    4.0740   20.3360 O.2    45  ALA45      -0.2867
     53  CB         2.9830    3.5660   21.5200 C.3    45  ALA45       0.0290
     54  N          0.5910    8.0100   18.7730 N.3    47  LYS47      -0.1245
     55  CA         1.2670    9.0600   18.0320 C.3    47  LYS47       0.1561
     56  C          0.2640   10.1870   17.7680 C.2    47  LYS47       0.2260
     57  O         -0.8580    9.9410   17.3020 O.2    47  LYS47      -0.2867
     58  CB         1.7970    8.5090   16.7040 C.3    47  LYS47       0.0271
     59  CG         2.9400    7.5260   16.8650 C.3    47  LYS47       0.0035
     60  CD         3.4580    7.0120   15.5360 C.3    47  LYS47       0.0206
     61  CE         3.9620    8.1420   14.6250 C.3    47  LYS47       0.1093
     62  NZ         4.8920    9.0930   15.3030 N.3    47  LYS47      -0.1314
     63  N          6.2370   -2.4440   13.8810 N.3    78  ILE78      -0.1245
     64  CA         5.2830   -1.7880   14.7670 C.3    78  ILE78       0.1561
     65  C          3.9750   -1.7790   13.9980 C.2    78  ILE78       0.2260
     66  O          3.9070   -1.2230   12.8980 O.2    78  ILE78      -0.2867
     67  CB         5.7120   -0.3260   15.0930 C.3    78  ILE78       0.0252
     68  CG1        6.9590   -0.3250   15.9920 C.3    78  ILE78       0.0019
     69  CG2        4.5680    0.4560   15.7600 C.3    78  ILE78       0.0019
     70  CD1        6.7200   -0.7740   17.4190 C.3    78  ILE78       0.0001
     71  N         -0.7130    2.6670   17.9390 N.3    94  VAL94      -0.1231
     72  CA         0.1780    1.6310   17.4240 C.3    94  VAL94       0.1692
     73  C          0.6620    0.7450   18.5710 C.2    94  VAL94       0.2592
     74  O          0.3350    0.9970   19.7310 O.2    94  VAL94      -0.2718
     75  CB         1.3820    2.2500   16.6610 C.3    94  VAL94       0.0266
     76  CG1        0.9060    2.8660   15.3610 C.3    94  VAL94       0.0020
     77  CG2        2.0460    3.3220   17.5110 C.3    94  VAL94       0.0020
     78  N          1.3810   -0.3220   18.2430 N.am   95  GLU95      -0.1966
     79  CA         1.8870   -1.2430   19.2530 C.3    95  GLU95       0.1733
     80  C          2.9110   -0.6210   20.1920 C.2    95  GLU95       0.2616
     81  O          3.6940    0.2330   19.8070 O.2    95  GLU95      -0.2715
     82  CB         2.4710   -2.4920   18.6080 C.3    95  GLU95       0.0429
     83  CG         1.4410   -3.3470   17.8990 C.3    95  GLU95       0.1163
     84  CD         2.0590   -4.5520   17.2000 C.2    95  GLU95       0.3649
     85  OE1        3.1350   -4.4280   16.5820 O.co2  95  GLU95      -0.2457
     86  OE2        1.4600   -5.6370   17.2530 O.co2  95  GLU95      -0.2457
     87  N          2.9000   -1.0870   21.4300 N.am   96  TYR96      -0.1960
     88  CA         3.7920   -0.6050   22.4660 C.3    96  TYR96       0.1771
     89  C          4.9910   -1.5300   22.6440 C.2    96  TYR96       0.2619
     90  O          4.8400   -2.7600   22.7340 O.2    96  TYR96      -0.2715
     91  CB         3.0110   -0.5090   23.7690 C.3    96  TYR96       0.0574
     92  CG         3.8250   -0.1260   24.9750 C.ar   96  TYR96      -0.0198
     93  CD1        4.5610    1.0550   24.9990 C.ar   96  TYR96      -0.0009
     94  CD2        3.8180   -0.9230   26.1140 C.ar   96  TYR96      -0.0009
     95  CE1        5.2610    1.4320   26.1290 C.ar   96  TYR96       0.0417
     96  CE2        4.5130   -0.5570   27.2460 C.ar   96  TYR96       0.0417
     97  CZ         5.2340    0.6210   27.2500 C.ar   96  TYR96       0.1957
     98  OH         5.9320    0.9770   28.3800 O.3    96  TYR96      -0.2866
     99  N          6.1770   -0.9220   22.6760 N.am   97  ALA97      -0.1963
    100  CA         7.4420   -1.6260   22.8610 C.3    97  ALA97       0.1728
    101  C          8.0410   -1.0930   24.1820 C.2    97  ALA97       0.2617
    102  O          8.8010   -0.1220   24.1980 O.2    97  ALA97      -0.2715
    103  CB         8.3550   -1.3430   21.6770 C.3    97  ALA97       0.0334
    104  N          7.6710   -1.7370   25.2860 N.am   98  SER98      -0.1936
    105  CA         8.0820   -1.3240   26.6230 C.3    98  SER98       0.2055
    106  C          9.5450   -1.0790   26.8620 C.2    98  SER98       0.2643
    107  O          9.8950   -0.1890   27.6310 O.2    98  SER98      -0.2714
    108  CB         7.6100   -2.3260   27.6650 C.3    98  SER98       0.2130
    109  OG         8.3650   -3.5200   27.5800 O.3    98  SER98      -0.2179
    110  N         10.4000   -1.8870   26.2470 N.am   99  LYS99      -0.1963
    111  CA        11.8320   -1.7520   26.4460 C.3    99  LYS99       0.1728
    112  C         12.5200   -0.7280   25.5750 C.2    99  LYS99       0.2617
    113  O         13.7420   -0.5900   25.6210 O.2    99  LYS99      -0.2715
    114  CB        12.5020   -3.1110   26.3690 C.3    99  LYS99       0.0311
    115  CG        12.0260   -3.9980   27.5000 C.3    99  LYS99       0.0038
    116  CD        12.5920   -5.3970   27.4610 C.3    99  LYS99       0.0206
    117  CE        12.1520   -6.1440   28.7050 C.3    99  LYS99       0.1093
    118  NZ        12.8770   -7.4200   28.8240 N.3    99  LYS99      -0.1314
    119  N         11.7280    0.0380   24.8340 N.am  100  GLY100     -0.1940
    120  CA        12.2860    1.0790   23.9980 C.3   100  GLY100      0.2014
    121  C         13.0840    0.5930   22.8170 C.2   100  GLY100      0.2638
    122  O         12.9920   -0.5690   22.4430 O.2   100  GLY100     -0.2714
    123  N         13.8910    1.4840   22.2480 N.am  101  ASN101     -0.1972
    124  CA        14.6920    1.1570   21.0680 C.3   101  ASN101      0.1688
    125  C         15.8330    0.1820   21.3250 C.2   101  ASN101      0.2292
    126  O         16.2670    0.0170   22.4600 O.2   101  ASN101     -0.2864
    127  CB        15.2110    2.4340   20.4060 C.3   101  ASN101      0.1181
    128  CG        16.2550    3.1430   21.2380 C.2   101  ASN101      0.2629
    129  OD1       17.3490    2.6240   21.4620 O.2   101  ASN101     -0.2716
    130  ND2       15.9440    4.3540   21.6610 N.am  101  ASN101     -0.0877
    131  N         19.7650    1.5910   22.8000 N.3   104  GLU104     -0.1245
    132  CA        19.8370    1.7340   24.2410 C.3   104  GLU104      0.1567
    133  C         19.6910    0.3940   24.9590 C.2   104  GLU104      0.2260
    134  O         20.3240    0.1550   25.9920 O.2   104  GLU104     -0.2867
    135  CB        18.7940    2.7460   24.6860 C.3   104  GLU104      0.0388
    136  CG        19.0870    4.1300   24.1190 C.3   104  GLU104      0.1160
    137  CD        17.9560    5.1210   24.3110 C.2   104  GLU104      0.3649
    138  OE1       16.7880    4.6880   24.4460 O.co2 104  GLU104     -0.2457
    139  OE2       18.2350    6.3420   24.3100 O.co2 104  GLU104     -0.2457
    140  N         18.3110    2.4210   16.4600 N.3   148  ARG148     -0.1245
    141  CA        17.4650    3.4240   17.1170 C.3   148  ARG148      0.1563
    142  C         16.0010    3.3220   16.6140 C.2   148  ARG148      0.2260
    143  O         15.0540    3.6670   17.3260 O.2   148  ARG148     -0.2867
    144  CB        18.0100    4.8240   16.8100 C.3   148  ARG148      0.0307
    145  CG        18.0650    5.0970   15.3050 C.3   148  ARG148      0.0489
    146  CD        18.5130    6.5010   14.9280 C.3   148  ARG148      0.2205
    147  NE        18.6600    6.6670   13.4750 N.pl3 148  ARG148     -0.0865
    148  CZ        19.8310    6.7900   12.8590 C.cat 148  ARG148      0.5346
    149  NH1       20.9500    6.7710   13.5620 N.pl3 148  ARG148      0.1354
    150  NH2       19.8920    6.9040   11.5450 N.pl3 148  ARG148      0.1354
    151  N         12.4530   -1.1620   17.8740 N.3   151  LEU151     -0.1245
    152  CA        11.9730   -1.1230   19.2480 C.3   151  LEU151      0.1561
    153  C         11.8370   -2.5410   19.8150 C.2   151  LEU151      0.2260
    154  O         11.6470   -3.5060   19.0710 O.2   151  LEU151     -0.2867
    155  CB        10.6540   -0.3350   19.3270 C.3   151  LEU151      0.0270
    156  CG        10.6480    1.1270   18.8380 C.3   151  LEU151      0.0019
    157  CD1        9.2450    1.6480   18.6990 C.3   151  LEU151      0.0001
    158  CD2       11.3950    2.0060   19.7790 C.3   151  LEU151      0.0001
    159  N         10.2890    0.3340   13.3650 N.3   161  ALA161     -0.1231
    160  CA         9.4640    1.5230   13.4630 C.3   161  ALA161      0.1694
    161  C          9.8640    2.5070   12.3750 C.2   161  ALA161      0.2592
    162  O         10.8930    2.3360   11.7210 O.2   161  ALA161     -0.2718
    163  CB         9.6280    2.1570   14.8420 C.3   161  ALA161      0.0304
    164  N          9.0200    3.5130   12.1620 N.am  162  ASP162     -0.1974
    165  CA         9.2530    4.5610   11.1670 C.3   162  ASP162      0.1709
    166  C          9.2310    4.1180    9.7060 C.2   162  ASP162      0.2293
    167  O          9.5260    4.9200    8.8200 O.2   162  ASP162     -0.2864
    168  CB        10.5620    5.3110   11.4620 C.3   162  ASP162      0.1436
    169  CG        10.3550    6.5870   12.2830 C.2   162  ASP162      0.3671
    170  OD1        9.2230    6.8530   12.7390 O.co2 162  ASP162     -0.2456
    171  OD2       11.3410    7.3370   12.4650 O.co2 162  ASP162     -0.2456
@<TRIPOS>BOND
     1   167   166    2
     2   166   165    1
     3   165   168    1
     4   165   164    1
     5   168   169    1
     6   150   148    1
     7   162   161    2
     8   164   161   am
     9   169   171   ar
    10   169   170   ar
    11   161   160    1
    12   148   147    2
    13   148   149    1
    14    66    65    2
    15   159   160    1
    16   160   163    1
    17   147   146    1
    18    63    64    1
    19    65    64    1
    20    61    62    1
    21    61    60    1
    22    64    67    1
    23   146   145    1
    24    67    69    1
    25    67    68    1
    26   145   144    1
    27    76    75    1
    28    60    59    1
    29    39    37   ar
    30    39    41   ar
    31    37    36   ar
    32    29    28    2
    33    68    70    1
    34   140   141    1
    35    85    84   ar
    36   142   141    1
    37   142   143    2
    38    75    72    1
    39    75    77    1
    40    32    33    1
    41    32    35    1
    42    32    31    1
    43    58    59    1
    44    58    55    1
    45   144   141    1
    46    34    33    2
    47    41    40   ar
    48    36    35    1
    49    36    38   ar
    50    28    31   am
    51    28    27    1
    52    84    86   ar
    53    84    83    1
    54    57    56    2
    55    72    71    1
    56    72    73    1
    57    56    55    1
    58   151   152    1
    59    83    82    1
    60    55    54    1
    61    27    30    1
    62    27    26    1
    63    40    38   ar
    64    78    73   am
    65    78    79    1
    66    25    24    2
    67    73    74    2
    68    82    79    1
    69   157   156    1
    70   156   155    1
    71   156   158    1
    72   154   153    2
    73   152   155    1
    74   152   153    1
    75    79    80    1
    76    26    24   am
    77    24    23    1
    78    48    46    1
    79    81    80    2
    80    80    87   am
    81    52    51    2
    82   127   124    1
    83   127   128    1
    84    23    22    1
    85    46    47    1
    86    46    43    1
    87    42    43    1
    88   124   125    1
    89   124   123    1
    90   128   129    2
    91   128   130   am
    92    51    50    1
    93   125   126    2
    94    43    44    1
    95    87    88    1
    96    53    50    1
    97   103   100    1
    98    22    15   am
    99    50    49    1
   100   123   121   am
   101   122   121    2
   102    88    89    1
   103    88    91    1
   104    16    15    2
   105    89    99   am
   106    89    90    2
   107    99   100    1
   108   131   132    1
   109   121   120    1
   110    44    45    2
   111    15    14    1
   112   100   101    1
   113    18    19    1
   114    18    17    1
   115    21    19   ar
   116    91    92    1
   117    19    20   ar
   118     4     3    2
   119   120   119    1
   120    13    14    1
   121    13    11   am
   122   136   137    1
   123   136   135    1
   124    14    17    1
   125   101   102    2
   126   101   104   am
   127   132   135    1
   128   132   133    1
   129   139   137   ar
   130   137   138   ar
   131    10    11    1
   132    10     9    1
   133    11    12    2
   134   119   112   am
   135     7     6    1
   136     3     9   am
   137     3     2    1
   138   133   134    2
   139    92    93   ar
   140    92    94   ar
   141     5     2    1
   142     5     6    1
   143    93    95   ar
   144   104   105    1
   145   112   113    2
   146   112   111    1
   147     2     1    1
   148     6     8    1
   149    94    96   ar
   150    95    97   ar
   151   110   111    1
   152   110   106   am
   153   114   111    1
   154   114   115    1
   155   105   106    1
   156   105   108    1
   157   106   107    2
   158    96    97   ar
   159    97    98    1
   160   116   115    1
   161   116   117    1
   162   109   108    1
   163   117   118    1
