@<TRIPOS>MOLECULE
tmp/1fgsA00.pdb
 112 107 0 0 0
SMALL
GASTEIGER

@<TRIPOS>ATOM
      1  N         51.4310   42.9390   24.0820 N.3    45  THR45      -0.1203
      2  CA        52.3530   42.5930   25.1780 C.3    45  THR45       0.1994
      3  C         52.1780   41.1800   25.6970 C.2    45  THR45       0.2618
      4  O         53.1480   40.5600   26.1210 O.2    45  THR45      -0.2717
      5  CB        52.2870   43.5820   26.3690 C.3    45  THR45       0.1784
      6  OG1       50.9960   43.5240   26.9850 O.3    45  THR45      -0.2211
      7  CG2       52.5390   44.9910   25.9070 C.3    45  THR45       0.0376
      8  N         50.9340   40.6890   25.6610 N.am   46  ASN46      -0.1960
      9  CA        50.5650   39.3370   26.1090 C.3    46  ASN46       0.1819
     10  C         49.5120   38.8130   25.1370 C.2    46  ASN46       0.2622
     11  O         48.8400   39.6010   24.4830 O.2    46  ASN46      -0.2715
     12  CB        49.8360   39.3910   27.4660 C.3    46  ASN46       0.1195
     13  CG        50.6800   39.9510   28.5780 C.2    46  ASN46       0.2630
     14  OD1       51.6390   39.3210   29.0310 O.2    46  ASN46      -0.2716
     15  ND2       50.3080   41.1350   29.0560 N.am   46  ASN46      -0.0877
     16  N         49.3290   37.4920   25.0790 N.am   47  GLY47      -0.1940
     17  CA        48.2900   36.8700   24.2450 C.3    47  GLY47       0.2014
     18  C         48.4040   36.8830   22.7170 C.2    47  GLY47       0.2639
     19  O         47.4790   36.4530   22.0320 O.2    47  GLY47      -0.2714
     20  N         49.5400   37.3400   22.1980 N.am   48  LYS48      -0.1963
     21  CA        49.7520   37.4100   20.7700 C.3    48  LYS48       0.1728
     22  C         50.1120   36.0900   20.1200 C.2    48  LYS48       0.2617
     23  O         49.7800   35.8940   18.9550 O.2    48  LYS48      -0.2715
     24  CB        50.7540   38.5050   20.4040 C.3    48  LYS48       0.0311
     25  CG        51.9520   38.6010   21.3070 C.3    48  LYS48       0.0038
     26  CD        53.0980   39.2550   20.5570 C.3    48  LYS48       0.0206
     27  CE        54.3710   39.2960   21.3900 C.3    48  LYS48       0.1093
     28  NZ        54.0810   39.1720   22.8510 N.3    48  LYS48      -0.1314
     29  N         50.7670   35.2010   20.8700 N.am   49  GLY49      -0.1940
     30  CA        51.1550   33.8850   20.3680 C.3    49  GLY49       0.2014
     31  C         49.9190   32.9850   20.3330 C.2    49  GLY49       0.2639
     32  O         49.7310   32.2090   19.3880 O.2    49  GLY49      -0.2714
     33  N         49.0810   33.1500   21.3520 N.am   50  SER50      -0.1949
     34  CA        47.8370   32.4100   21.5200 C.3    50  SER50       0.1924
     35  C         46.7580   32.7930   20.5060 C.2    50  SER50       0.2314
     36  O         46.0120   31.9170   20.0510 O.2    50  SER50      -0.2863
     37  CB        47.2980   32.6330   22.9380 C.3    50  SER50       0.2116
     38  OG        46.4380   31.5850   23.3250 O.3    50  SER50      -0.2180
     39  N         57.3080   32.9070   18.0000 N.3    71  SER71      -0.1217
     40  CA        58.4540   32.8620   18.9060 C.3    71  SER71       0.1889
     41  C         57.9130   32.8260   20.3410 C.2    71  SER71       0.2288
     42  O         56.9540   33.5230   20.6660 O.2    71  SER71      -0.2866
     43  CB        59.3220   34.1080   18.7160 C.3    71  SER71       0.2089
     44  OG        60.5720   33.9850   19.3810 O.3    71  SER71      -0.2183
     45  N         53.6570   36.9290   13.9140 N.3   141  GLU141     -0.1245
     46  CA        53.6930   37.4150   15.2720 C.3   141  GLU141      0.1567
     47  C         54.9150   38.3130   15.3050 C.2   141  GLU141      0.2260
     48  O         55.9690   37.9350   14.8080 O.2   141  GLU141     -0.2867
     49  CB        53.8390   36.2650   16.2680 C.3   141  GLU141      0.0388
     50  CG        54.4920   36.6780   17.5730 C.3   141  GLU141      0.1160
     51  CD        54.4180   35.6140   18.6300 C.2   141  GLU141      0.3649
     52  OE1       54.8990   34.5090   18.3940 O.co2 141  GLU141     -0.2457
     53  OE2       53.9410   35.8920   19.7330 O.co2 141  GLU141     -0.2457
     54  N         41.6600   34.9500   30.5910 N.3   246  TYR246     -0.1241
     55  CA        42.3170   35.8670   29.6550 C.3   246  TYR246      0.1605
     56  C         42.2940   35.3080   28.2310 C.2   246  TYR246      0.2264
     57  O         42.3830   36.0490   27.2630 O.2   246  TYR246     -0.2867
     58  CB        43.7700   36.1630   30.0840 C.3   246  TYR246      0.0534
     59  CG        44.6810   34.9450   30.2430 C.ar  246  TYR246     -0.0201
     60  CD1       44.7850   34.2870   31.4620 C.ar  246  TYR246     -0.0009
     61  CD2       45.4840   34.4960   29.1940 C.ar  246  TYR246     -0.0009
     62  CE1       45.6060   33.1800   31.6080 C.ar  246  TYR246      0.0417
     63  CE2       46.2930   33.3920   29.3280 C.ar  246  TYR246      0.0417
     64  CZ        46.3590   32.7380   30.5410 C.ar  246  TYR246      0.1957
     65  OH        47.1810   31.6390   30.6930 O.3   246  TYR246     -0.2866
     66  N         47.9070   25.0640   22.5770 N.3   283  TRP283     -0.1241
     67  CA        49.0540   25.9320   22.7040 C.3   283  TRP283      0.1605
     68  C         49.8790   25.3500   23.8330 C.2   283  TRP283      0.2264
     69  O         49.4990   25.4640   25.0010 O.2   283  TRP283     -0.2867
     70  CB        48.5720   27.3470   23.0100 C.3   283  TRP283      0.0550
     71  CG        49.5710   28.4410   22.8060 C.ar  283  TRP283      0.0003
     72  CD1       49.8170   29.4590   23.6720 C.ar  283  TRP283      0.0946
     73  CD2       50.3970   28.6950   21.6480 C.ar  283  TRP283      0.0152
     74  NE1       50.7580   30.3100   23.1530 N.ar  283  TRP283     -0.2442
     75  CE2       51.1340   29.8640   21.9150 C.ar  283  TRP283      0.0810
     76  CE3       50.6080   28.0320   20.4300 C.ar  283  TRP283      0.0012
     77  CZ2       52.0840   30.3780   21.0220 C.ar  283  TRP283      0.0191
     78  CZ3       51.5310   28.5670   19.5240 C.ar  283  TRP283      0.0001
     79  CH2       52.2450   29.7300   19.8230 C.ar  283  TRP283      0.0015
     80  N         51.4310   26.1770   28.1600 N.3   286  ARG286     -0.1245
     81  CA        50.7450   27.3230   28.7470 C.3   286  ARG286      0.1563
     82  C         49.5390   26.7000   29.4360 C.2   286  ARG286      0.2260
     83  O         48.4530   26.6710   28.8370 O.2   286  ARG286     -0.2867
     84  CB        50.2760   28.2920   27.6460 C.3   286  ARG286      0.0307
     85  CG        51.2760   29.3970   27.2800 C.3   286  ARG286      0.0489
     86  CD        52.4530   28.8320   26.4840 C.3   286  ARG286      0.2205
     87  NE        53.2040   29.7900   25.6800 N.pl3 286  ARG286     -0.0865
     88  CZ        53.7070   29.5110   24.4800 C.cat 286  ARG286      0.5346
     89  NH1       53.5120   28.3220   23.9290 N.pl3 286  ARG286      0.1354
     90  NH2       54.3880   30.4280   23.8150 N.pl3 286  ARG286      0.1354
     91  N         54.3620   28.2310   31.7700 N.3   300  GLY300     -0.1225
     92  CA        55.4330   29.2140   31.7700 C.3   300  GLY300      0.1811
     93  C         55.0160   30.6170   32.2610 C.2   300  GLY300      0.2280
     94  O         55.2900   31.6040   31.5720 O.2   300  GLY300     -0.2866
     95  N         55.6780   33.6570   34.4950 N.3   302  HIS302     -0.1241
     96  CA        56.9690   34.1020   35.0070 C.3   302  HIS302      0.1621
     97  C         57.0220   35.4530   35.7070 C.2   302  HIS302      0.2264
     98  O         58.0370   35.8350   36.2970 O.2   302  HIS302     -0.2867
     99  CB        58.0090   34.0280   33.8600 C.3   302  HIS302      0.0745
    100  CG        57.7670   35.0040   32.7430 C.ar  302  HIS302      0.0817
    101  ND1       56.7150   34.9030   31.8520 N.ar  302  HIS302     -0.2268
    102  CD2       58.4840   36.0830   32.3470 C.ar  302  HIS302      0.1154
    103  CE1       56.7670   35.9010   30.9900 C.ar  302  HIS302      0.1986
    104  NE2       57.8410   36.6240   31.2590 N.ar  302  HIS302     -0.2212
    105  N         59.1740   29.5660   31.0160 N.3   381  LEU381     -0.1245
    106  CA        58.7650   28.8520   29.8020 C.3   381  LEU381      0.1561
    107  C         59.9140   27.9910   29.3060 C.2   381  LEU381      0.2260
    108  O         59.7120   27.0210   28.5860 O.2   381  LEU381     -0.2867
    109  CB        58.2940   29.8090   28.6980 C.3   381  LEU381      0.0270
    110  CG        57.4690   29.1750   27.5630 C.3   381  LEU381      0.0019
    111  CD1       56.2030   28.5200   28.0620 C.3   381  LEU381      0.0001
    112  CD2       57.1580   30.1480   26.4410 C.3   381  LEU381      0.0001
@<TRIPOS>BOND
     1    45    46    1
     2    48    47    2
     3    46    47    1
     4    46    49    1
     5    49    50    1
     6    50    51    1
     7    39    40    1
     8    52    51   ar
     9    51    53   ar
    10    43    40    1
    11    43    44    1
    12    40    41    1
    13    23    22    2
    14    32    31    2
    15    78    79   ar
    16    78    76   ar
    17    79    77   ar
    18    36    35    2
    19    22    21    1
    20    22    29   am
    21    31    30    1
    22    31    33   am
    23    41    42    2
    24    30    29    1
    25    24    21    1
    26    24    25    1
    27    76    73   ar
    28    35    34    1
    29    26    25    1
    30    26    27    1
    31    21    20    1
    32    77    75   ar
    33    33    34    1
    34    27    28    1
    35    34    37    1
    36    73    75   ar
    37    73    71   ar
    38    75    74   ar
    39    19    18    2
    40    20    18   am
    41    66    67    1
    42    67    70    1
    43    67    68    1
    44    18    17    1
    45    71    70    1
    46    71    72   ar
    47    37    38    1
    48    74    72   ar
    49    90    88    1
    50    68    69    2
    51    89    88    1
    52     1     2    1
    53    17    16    1
    54    88    87    2
    55    11    10    2
    56    16    10   am
    57    10     9    1
    58     2     3    1
    59     2     5    1
    60     8     3   am
    61     8     9    1
    62    87    86    1
    63     3     4    2
    64     7     5    1
    65     9    12    1
    66     5     6    1
    67   112   110    1
    68    86    85    1
    69    57    56    2
    70    85    84    1
    71    12    13    1
    72   110   111    1
    73   110   109    1
    74    84    81    1
    75    80    81    1
    76    56    55    1
    77    13    14    2
    78    13    15   am
    79   108   107    2
    80   109   106    1
    81    81    82    1
    82    83    82    2
    83    61    63   ar
    84    61    59   ar
    85   107   106    1
    86    63    64   ar
    87    55    58    1
    88    55    54    1
    89   106   105    1
    90    58    59    1
    91    59    60   ar
    92    64    65    1
    93    64    62   ar
    94   103   104   ar
    95   103   101   ar
    96   104   102   ar
    97    60    62   ar
    98    94    93    2
    99    92    91    1
   100    92    93    1
   101   101   100   ar
   102   102   100   ar
   103   100    99    1
   104    99    96    1
   105    95    96    1
   106    96    97    1
   107    97    98    2
