@<TRIPOS>MOLECULE
tmp/1fh0A00.pdb
 156 152 0 0 0
SMALL
GASTEIGER

@<TRIPOS>ATOM
      1  N         48.1090   62.2910   25.9000 N.3    19  GLN19      -0.1245
      2  CA        47.4780   61.2190   25.1390 C.3    19  GLN19       0.1566
      3  C         46.0360   60.9770   25.5760 C.2    19  GLN19       0.2260
      4  O         45.2740   60.3030   24.8840 O.2    19  GLN19      -0.2867
      5  CB        48.2860   59.9280   25.2850 C.3    19  GLN19       0.0367
      6  CG        48.3190   59.3710   26.6930 C.3    19  GLN19       0.0905
      7  CD        49.2970   58.2190   26.8360 C.2    19  GLN19       0.2608
      8  OE1       50.5150   58.4140   26.8280 O.2    19  GLN19      -0.2717
      9  NE2       48.7670   57.0100   26.9590 N.am   19  GLN19      -0.0878
     10  N         43.7310   57.0880   25.8500 N.3    22  CYS22      -0.1221
     11  CA        44.1070   56.2980   24.6870 C.3    22  CYS22       0.1808
     12  C         45.5360   55.8180   24.9380 C.2    22  CYS22       0.2601
     13  O         46.3940   56.6030   25.3430 O.2    22  CYS22      -0.2717
     14  CB        44.0220   57.1780   23.4300 C.3    22  CYS22       0.0970
     15  SG        44.7850   56.5320   21.9040 S.3    22  CYS22      -0.0800
     16  N         45.7810   54.5270   24.7250 N.am   23  GLY23      -0.1957
     17  CA        47.1100   53.9770   24.9500 C.3    23  GLY23       0.1869
     18  C         48.0420   54.2410   23.7860 C.2    23  GLY23       0.2309
     19  O         48.6550   53.3240   23.2410 O.2    23  GLY23      -0.2863
     20  N         50.8370   56.1070   23.8870 N.3    25  CYS25      -0.1221
     21  CA        52.1380   56.5780   24.3530 C.3    25  CYS25       0.1808
     22  C         53.2300   56.3820   23.3070 C.2    25  CYS25       0.2601
     23  O         54.0730   57.2550   23.1110 O.2    25  CYS25      -0.2717
     24  CB        52.5370   55.8530   25.6360 C.3    25  CYS25       0.0970
     25  SG        52.6180   54.0470   25.4610 S.3    25  CYS25      -0.0800
     26  N         53.2090   55.2300   22.6460 N.am   26  TRP26      -0.1976
     27  CA        54.1980   54.9030   21.6220 C.3    26  TRP26       0.1640
     28  C         54.2190   55.9260   20.4870 C.2    26  TRP26       0.2290
     29  O         55.2790   56.2260   19.9260 O.2    26  TRP26      -0.2864
     30  CB        53.9070   53.5200   21.0390 C.3    26  TRP26       0.0576
     31  CG        52.5360   53.4160   20.4350 C.ar   26  TRP26       0.0006
     32  CD1       51.3730   53.1090   21.0850 C.ar   26  TRP26       0.0946
     33  CD2       52.1800   53.6680   19.0720 C.ar   26  TRP26       0.0152
     34  NE1       50.3140   53.1540   20.2090 N.ar   26  TRP26      -0.2442
     35  CE2       50.7820   53.4960   18.9650 C.ar   26  TRP26       0.0810
     36  CE3       52.9070   54.0260   17.9270 C.ar   26  TRP26       0.0012
     37  CZ2       50.0920   53.6680   17.7580 C.ar   26  TRP26       0.0191
     38  CZ3       52.2230   54.1980   16.7260 C.ar   26  TRP26       0.0001
     39  CH2       50.8290   54.0180   16.6520 C.ar   26  TRP26       0.0015
     40  N         51.9110   46.6910   12.3220 N.3    61  GLY61      -0.1225
     41  CA        51.8110   45.9870   13.5870 C.3    61  GLY61       0.1811
     42  C         51.3200   46.7640   14.7930 C.2    61  GLY61       0.2280
     43  O         51.1550   46.1870   15.8700 O.2    61  GLY61      -0.2866
     44  N         48.6060   48.9680   17.1160 N.3    63  GLN63      -0.1245
     45  CA        47.1780   48.8370   17.3780 C.3    63  GLN63       0.1566
     46  C         46.5670   50.0950   17.9820 C.2    63  GLN63       0.2260
     47  O         45.7320   50.0250   18.8840 O.2    63  GLN63      -0.2867
     48  CB        46.9200   47.6290   18.2840 C.3    63  GLN63       0.0367
     49  CG        47.3380   46.3100   17.6510 C.3    63  GLN63       0.0905
     50  CD        46.9090   45.0970   18.4560 C.2    63  GLN63       0.2608
     51  OE1       47.2010   43.9600   18.0820 O.2    63  GLN63      -0.2717
     52  NE2       46.2100   45.3300   19.5610 N.am   63  GLN63      -0.0878
     53  N         45.1890   52.9690   19.9460 N.3    65  CYS65      -0.1221
     54  CA        44.9860   53.1970   21.3730 C.3    65  CYS65       0.1808
     55  C         45.2070   51.9450   22.1950 C.2    65  CYS65       0.2601
     56  O         45.1970   51.9820   23.4310 O.2    65  CYS65      -0.2717
     57  CB        43.5840   53.7510   21.6300 C.3    65  CYS65       0.0970
     58  SG        43.3440   55.4370   20.9760 S.3    65  CYS65      -0.0800
     59  N         45.4280   50.8360   21.5020 N.am   66  ASN66      -0.1960
     60  CA        45.6630   49.5950   22.1990 C.3    66  ASN66       0.1819
     61  C         47.1010   49.1340   22.2760 C.2    66  ASN66       0.2622
     62  O         47.4170   48.0150   22.6890 O.2    66  ASN66      -0.2715
     63  CB        44.7190   48.5490   21.6790 C.3    66  ASN66       0.1195
     64  CG        43.4360   48.5130   22.4680 C.2    66  ASN66       0.2630
     65  OD1       42.4250   48.0840   21.9290 O.2    66  ASN66      -0.2716
     66  ND2       43.4610   48.9440   23.7460 N.am   66  ASN66      -0.0877
     67  N         47.9760   50.0760   21.9480 N.am   67  GLY67      -0.1940
     68  CA        49.3970   49.8250   22.0360 C.3    67  GLY67       0.2014
     69  C         50.1130   49.7930   20.7140 C.2    67  GLY67       0.2639
     70  O         49.5080   49.5730   19.6670 O.2    67  GLY67      -0.2714
     71  N         51.4220   50.0000   20.7760 N.am   68  GLY68      -0.1939
     72  CA        52.2290   49.9890   19.5750 C.3    68  GLY68       0.2014
     73  C         53.7080   50.0460   19.8980 C.2    68  GLY68       0.2639
     74  O         54.1060   49.9520   21.0600 O.2    68  GLY68      -0.2714
     75  N         54.5230   50.2030   18.8610 N.am   69  PHE69      -0.1959
     76  CA        55.9710   50.2770   19.0180 C.3    69  PHE69       0.1771
     77  C         56.5050   51.4900   18.2770 C.2    69  PHE69       0.2619
     78  O         56.0760   51.7760   17.1570 O.2    69  PHE69      -0.2715
     79  CB        56.6430   49.0270   18.4430 C.3    69  PHE69       0.0574
     80  CG        56.3130   47.7610   19.1760 C.ar   69  PHE69      -0.0200
     81  CD1       55.5420   46.7750   18.5700 C.ar   69  PHE69      -0.0042
     82  CD2       56.7880   47.5450   20.4660 C.ar   69  PHE69      -0.0042
     83  CE1       55.2500   45.5860   19.2390 C.ar   69  PHE69      -0.0003
     84  CE2       56.5010   46.3610   21.1430 C.ar   69  PHE69      -0.0003
     85  CZ        55.7310   45.3800   20.5260 C.ar   69  PHE69      -0.0000
     86  N         57.4430   52.2020   18.8930 N.am   70  MET70      -0.1977
     87  CA        58.0270   53.3650   18.2410 C.3    70  MET70       0.1605
     88  C         58.7420   52.9120   16.9700 C.2    70  MET70       0.2287
     89  O         58.6890   53.5840   15.9400 O.2    70  MET70      -0.2864
     90  CB        59.0220   54.0690   19.1730 C.3    70  MET70       0.0413
     91  CG        58.3900   54.7620   20.3790 C.3    70  MET70       0.0598
     92  SD        57.8780   53.6410   21.6950 S.3    70  MET70      -0.1393
     93  CE        59.4440   53.3670   22.5320 C.3    70  MET70       0.0692
     94  N         61.5080   52.7690   25.8230 N.3   136  ALA136     -0.1245
     95  CA        60.3900   52.0880   26.4620 C.3   136  ALA136      0.1562
     96  C         60.8330   51.8490   27.8950 C.2   136  ALA136      0.2260
     97  O         62.0270   51.7120   28.1660 O.2   136  ALA136     -0.2867
     98  CB        60.0980   50.7660   25.7670 C.3   136  ALA136      0.0290
     99  N         56.6760   51.5140   33.4560 N.3   139  ALA139     -0.1231
    100  CA        56.0480   52.6260   34.1600 C.3   139  ALA139      0.1694
    101  C         54.7190   52.1920   34.7620 C.2   139  ALA139      0.2592
    102  O         53.8630   53.0260   35.0610 O.2   139  ALA139     -0.2718
    103  CB        55.8270   53.7910   33.1960 C.3   139  ALA139      0.0304
    104  N         54.5580   50.8870   34.9500 N.am  140  GLY140     -0.1957
    105  CA        53.3160   50.3600   35.4860 C.3   140  GLY140      0.1869
    106  C         53.1260   50.4240   36.9890 C.2   140  GLY140      0.2309
    107  O         52.0690   50.0390   37.4900 O.2   140  GLY140     -0.2863
    108  N         58.6180   45.9470   29.7520 N.3   162  LEU162     -0.1231
    109  CA        58.2950   47.3540   29.5520 C.3   162  LEU162      0.1693
    110  C         56.8550   47.5160   29.0690 C.2   162  LEU162      0.2592
    111  O         56.3190   46.6380   28.3940 O.2   162  LEU162     -0.2718
    112  CB        59.2660   47.9420   28.5290 C.3   162  LEU162      0.0284
    113  CG        60.7120   47.4460   28.6870 C.3   162  LEU162      0.0019
    114  CD1       61.5750   48.0240   27.5770 C.3   162  LEU162      0.0001
    115  CD2       61.2580   47.8340   30.0540 C.3   162  LEU162      0.0001
    116  N         56.2350   48.6440   29.4030 N.am  163  ASP163     -0.1960
    117  CA        54.8470   48.8750   29.0140 C.3   163  ASP163      0.1840
    118  C         54.5430   50.3130   28.6240 C.2   163  ASP163      0.2622
    119  O         53.3880   50.6560   28.3700 O.2   163  ASP163     -0.2715
    120  CB        53.9270   48.4790   30.1710 C.3   163  ASP163      0.1450
    121  CG        54.1850   49.2950   31.4320 C.2   163  ASP163      0.3671
    122  OD1       53.5580   48.9970   32.4710 O.co2 163  ASP163     -0.2456
    123  OD2       55.0080   50.2360   31.3930 O.co2 163  ASP163     -0.2456
    124  N         55.5720   51.1470   28.5490 N.am  164  HIS164     -0.1959
    125  CA        55.3540   52.5520   28.2540 C.3   164  HIS164      0.1787
    126  C         56.4490   53.1520   27.3810 C.2   164  HIS164      0.2620
    127  O         57.6370   52.9370   27.6170 O.2   164  HIS164     -0.2715
    128  CB        55.2510   53.2950   29.5930 C.3   164  HIS164      0.0785
    129  CG        54.8780   54.7390   29.4760 C.ar  164  HIS164      0.0821
    130  ND1       53.9640   55.2030   28.5550 N.ar  164  HIS164     -0.2267
    131  CD2       55.2500   55.8130   30.2130 C.ar  164  HIS164      0.1154
    132  CE1       53.7860   56.5010   28.7310 C.ar  164  HIS164      0.1986
    133  NE2       54.5540   56.8950   29.7310 N.ar  164  HIS164     -0.2212
    134  N         56.0320   53.8990   26.3650 N.am  165  GLY165     -0.1954
    135  CA        56.9790   54.5380   25.4720 C.3   165  GLY165      0.1869
    136  C         57.0820   56.0120   25.8030 C.2   165  GLY165      0.2309
    137  O         56.0690   56.7130   25.8680 O.2   165  GLY165     -0.2863
    138  N         51.5430   62.7120   29.3390 N.3   190  TRP190     -0.1241
    139  CA        50.3580   62.7320   30.1900 C.3   190  TRP190      0.1605
    140  C         49.9860   64.1630   30.5650 C.2   190  TRP190      0.2264
    141  O         49.3370   64.4010   31.5870 O.2   190  TRP190     -0.2867
    142  CB        50.6040   61.9180   31.4670 C.3   190  TRP190      0.0550
    143  CG        50.7960   60.4430   31.2390 C.ar  190  TRP190      0.0003
    144  CD1       50.6510   59.7630   30.0610 C.ar  190  TRP190      0.0946
    145  CD2       51.1540   59.4670   32.2230 C.ar  190  TRP190      0.0152
    146  NE1       50.8990   58.4240   30.2530 N.ar  190  TRP190     -0.2442
    147  CE2       51.2100   58.2160   31.5710 C.ar  190  TRP190      0.0810
    148  CE3       51.4340   59.5300   33.5940 C.ar  190  TRP190      0.0012
    149  CZ2       51.5340   57.0330   32.2450 C.ar  190  TRP190      0.0191
    150  CZ3       51.7570   58.3530   34.2650 C.ar  190  TRP190      0.0001
    151  CH2       51.8040   57.1220   33.5880 C.ar  190  TRP190      0.0015
    152  N         65.0470   49.2120   25.0900 N.3   215  ALA215     -0.1245
    153  CA        64.4720   49.3390   23.7560 C.3   215  ALA215      0.1562
    154  C         64.4780   50.7840   23.2790 C.2   215  ALA215      0.2260
    155  O         63.4230   51.3710   23.0360 O.2   215  ALA215     -0.2867
    156  CB        63.0480   48.7950   23.7550 C.3   215  ALA215      0.0290
@<TRIPOS>BOND
     1    40    41    1
     2    41    42    1
     3    42    43    2
     4    89    88    2
     5    39    38   ar
     6    39    37   ar
     7    38    36   ar
     8    88    87    1
     9    44    45    1
    10    78    77    2
    11    45    46    1
    12    45    48    1
    13    49    48    1
    14    49    50    1
    15    37    35   ar
    16    36    33   ar
    17    46    47    2
    18    51    50    2
    19    87    86    1
    20    87    90    1
    21    77    86   am
    22    77    76    1
    23    79    76    1
    24    79    80    1
    25    50    52   am
    26    81    80   ar
    27    81    83   ar
    28    75    76    1
    29    75    73   am
    30    35    33   ar
    31    35    34   ar
    32    33    31   ar
    33    90    91    1
    34    80    82   ar
    35    83    85   ar
    36    72    73    1
    37    72    71    1
    38    70    69    2
    39    73    74    2
    40    29    28    2
    41    53    54    1
    42    34    32   ar
    43    91    92    1
    44    31    30    1
    45    31    32   ar
    46    82    84   ar
    47    28    27    1
    48    85    84   ar
    49    69    71   am
    50    69    68    1
    51    58    57    1
    52    58    15    1
    53    30    27    1
    54    54    57    1
    55    54    55    1
    56    59    55   am
    57    59    60    1
    58    27    26    1
    59    63    60    1
    60    63    64    1
    61    92    93    1
    62    15    14    1
    63    65    64    2
    64    67    68    1
    65    67    61   am
    66    55    56    2
    67    60    61    1
    68    61    62    2
    69    64    66   am
    70    26    22   am
    71   155   154    2
    72    23    22    2
    73    19    18    2
    74   154   153    1
    75    22    21    1
    76    14    11    1
    77   156   153    1
    78   153   152    1
    79    18    17    1
    80    20    21    1
    81    21    24    1
    82    11    12    1
    83    11    10    1
    84    16    12   am
    85    16    17    1
    86     4     3    2
    87    12    13    2
    88     2     5    1
    89     2     3    1
    90     2     1    1
    91     5     6    1
    92    25    24    1
    93   135   136    1
    94   135   134    1
    95    98    95    1
    96   136   137    2
    97    94    95    1
    98   134   126   am
    99    95    96    1
   100     6     7    1
   101     8     7    2
   102     7     9   am
   103   126   127    2
   104   126   125    1
   105   114   113    1
   106    96    97    2
   107   125   124    1
   108   125   128    1
   109   119   118    2
   110   111   110    2
   111   112   113    1
   112   112   109    1
   113   124   118   am
   114   130   132   ar
   115   130   129   ar
   116   118   117    1
   117   113   115    1
   118   132   133   ar
   119   117   116    1
   120   117   120    1
   121   110   116   am
   122   110   109    1
   123   138   139    1
   124   129   128    1
   125   129   131   ar
   126   109   108    1
   127   133   131   ar
   128   144   146   ar
   129   144   143   ar
   130   120   121    1
   131   139   140    1
   132   139   142    1
   133   146   147   ar
   134   140   141    2
   135   143   142    1
   136   143   145   ar
   137   123   121   ar
   138   121   122   ar
   139   147   145   ar
   140   147   149   ar
   141   145   148   ar
   142   149   151   ar
   143   103   100    1
   144    99   100    1
   145   151   150   ar
   146   148   150   ar
   147   100   101    1
   148   101   104   am
   149   101   102    2
   150   104   105    1
   151   105   106    1
   152   106   107    2
