@<TRIPOS>MOLECULE
tmp/1fh7A00.pdb
 139 135 0 0 0
SMALL
GASTEIGER

@<TRIPOS>ATOM
      1  N         20.6130   65.1650   45.6400 N.3    43  GLU43      -0.1231
      2  CA        19.9890   65.0100   44.3350 C.3    43  GLU43       0.1699
      3  C         18.8400   65.9890   44.1710 C.2    43  GLU43       0.2592
      4  O         18.6090   66.4970   43.0740 O.2    43  GLU43      -0.2718
      5  CB        19.4790   63.5700   44.1470 C.3    43  GLU43       0.0402
      6  CG        18.6400   63.3690   42.8880 C.3    43  GLU43       0.1161
      7  CD        18.1680   61.9310   42.7110 C.2    43  GLU43       0.3649
      8  OE1       17.8760   61.2780   43.7280 O.co2  43  GLU43      -0.2457
      9  OE2       18.0760   61.4740   41.5490 O.co2  43  GLU43      -0.2457
     10  N         18.1380   66.2800   45.2650 N.am   44  ASN44      -0.1974
     11  CA        16.9820   67.1730   45.2250 C.3    44  ASN44       0.1688
     12  C         16.7660   68.0560   46.4490 C.2    44  ASN44       0.2292
     13  O         16.1240   69.0970   46.3500 O.2    44  ASN44      -0.2864
     14  CB        15.6950   66.3520   45.0480 C.3    44  ASN44       0.1181
     15  CG        15.5510   65.7640   43.6640 C.2    44  ASN44       0.2629
     16  OD1       15.4430   66.4940   42.6850 O.2    44  ASN44      -0.2716
     17  ND2       15.5330   64.4350   43.5760 N.am   44  ASN44      -0.0877
     18  N         17.4360   71.9910   46.3400 N.3    47  LYS47      -0.1245
     19  CA        16.9080   72.7780   45.2220 C.3    47  LYS47       0.1561
     20  C         15.9040   73.7900   45.7830 C.2    47  LYS47       0.2260
     21  O         15.4880   73.6930   46.9410 O.2    47  LYS47      -0.2867
     22  CB        16.2610   71.8700   44.1870 C.3    47  LYS47       0.0271
     23  CG        17.2800   70.9840   43.4730 C.3    47  LYS47       0.0035
     24  CD        16.6130   70.0210   42.5020 C.3    47  LYS47       0.0206
     25  CE        17.6450   69.2150   41.7150 C.3    47  LYS47       0.1093
     26  NZ        16.9980   68.1360   40.9080 N.3    47  LYS47      -0.1314
     27  N         23.8930   71.7450   45.4120 N.3    80  HIS80      -0.1241
     28  CA        23.1760   71.7710   44.1540 C.3    80  HIS80       0.1621
     29  C         21.7320   72.0980   44.4650 C.2    80  HIS80       0.2264
     30  O         21.0960   71.2950   45.1220 O.2    80  HIS80      -0.2867
     31  CB        23.2940   70.3620   43.5770 C.3    80  HIS80       0.0745
     32  CG        22.5910   70.1540   42.2750 C.ar   80  HIS80       0.0817
     33  ND1       23.1080   70.5800   41.0660 N.ar   80  HIS80      -0.2268
     34  CD2       21.4180   69.5430   41.9890 C.ar   80  HIS80       0.1154
     35  CE1       22.2780   70.2500   40.0940 C.ar   80  HIS80       0.1986
     36  NE2       21.2420   69.6180   40.6300 N.ar   80  HIS80      -0.2212
     37  N         18.1530   77.8270   39.3220 N.3    84  TRP84      -0.1241
     38  CA        17.8740   76.8960   38.2360 C.3    84  TRP84       0.1605
     39  C         16.4440   77.1430   37.7580 C.2    84  TRP84       0.2264
     40  O         15.5560   77.3860   38.5710 O.2    84  TRP84      -0.2867
     41  CB        18.0510   75.4620   38.7460 C.3    84  TRP84       0.0550
     42  CG        17.9080   74.3990   37.7120 C.ar   84  TRP84       0.0003
     43  CD1       18.2830   74.4710   36.4000 C.ar   84  TRP84       0.0946
     44  CD2       17.4260   73.0670   37.9120 C.ar   84  TRP84       0.0152
     45  NE1       18.0680   73.2630   35.7720 N.ar   84  TRP84      -0.2442
     46  CE2       17.5360   72.3780   36.6900 C.ar   84  TRP84       0.0810
     47  CE3       16.9000   72.3820   39.0290 C.ar   84  TRP84       0.0012
     48  CZ2       17.1540   71.0430   36.5290 C.ar   84  TRP84       0.0191
     49  CZ3       16.5160   71.0460   38.8700 C.ar   84  TRP84       0.0001
     50  CH2       16.6470   70.3980   37.6310 C.ar   84  TRP84       0.0015
     51  N         12.2700   73.0160   38.6070 N.3    87  GLN87      -0.1245
     52  CA        11.9600   72.7860   40.0140 C.3    87  GLN87       0.1566
     53  C         11.9770   74.1210   40.7660 C.2    87  GLN87       0.2260
     54  O         12.4690   74.2430   41.8930 O.2    87  GLN87      -0.2867
     55  CB        12.9340   71.7630   40.6240 C.3    87  GLN87       0.0367
     56  CG        12.6120   70.3350   40.1730 C.3    87  GLN87       0.0905
     57  CD        13.5390   69.2820   40.7520 C.2    87  GLN87       0.2608
     58  OE1       13.4670   68.9500   41.9400 O.2    87  GLN87      -0.2717
     59  NE2       14.4160   68.7510   39.9140 N.am   87  GLN87      -0.0878
     60  N         22.6200   76.9200   37.2540 N.3   126  ASN126     -0.1225
     61  CA        22.5870   75.6550   36.5200 C.3   126  ASN126      0.1785
     62  C         21.8280   75.7700   35.1980 C.2   126  ASN126      0.2597
     63  O         20.7730   76.3990   35.1410 O.2   126  ASN126     -0.2718
     64  CB        21.9260   74.6000   37.4230 C.3   126  ASN126      0.1169
     65  CG        22.0480   73.1920   36.8850 C.2   126  ASN126      0.2627
     66  OD1       23.0540   72.8350   36.2780 O.2   126  ASN126     -0.2716
     67  ND2       21.0280   72.3740   37.1270 N.am  126  ASN126     -0.0877
     68  N         22.3800   75.1670   34.1460 N.am  127  GLU127     -0.1979
     69  CA        21.7710   75.1430   32.8160 C.3   127  GLU127      0.1602
     70  C         21.3360   76.5000   32.2710 C.2   127  GLU127      0.2287
     71  O         20.1770   76.6840   31.8770 O.2   127  GLU127     -0.2864
     72  CB        20.5740   74.1780   32.8190 C.3   127  GLU127      0.0415
     73  CG        20.9060   72.8350   33.4230 C.3   127  GLU127      0.1163
     74  CD        19.7710   71.8360   33.3220 C.2   127  GLU127      0.3649
     75  OE1       18.6020   72.2580   33.1980 O.co2 127  GLU127     -0.2457
     76  OE2       20.0490   70.6220   33.3790 O.co2 127  GLU127     -0.2457
     77  N         27.8540   68.4090   33.9750 N.3   203  GLN203     -0.1245
     78  CA        26.8900   67.3840   34.3730 C.3   203  GLN203      0.1566
     79  C         27.2720   66.0020   33.8640 C.2   203  GLN203      0.2260
     80  O         27.2560   65.0230   34.6150 O.2   203  GLN203     -0.2867
     81  CB        25.4920   67.7620   33.8770 C.3   203  GLN203      0.0367
     82  CG        24.8510   68.9030   34.6580 C.3   203  GLN203      0.0905
     83  CD        23.4290   69.1750   34.2080 C.2   203  GLN203      0.2608
     84  OE1       22.7700   68.2880   33.6570 O.2   203  GLN203     -0.2717
     85  NE2       22.9420   70.3810   34.4470 N.am  203  GLN203     -0.0878
     86  N         25.7330   63.9470   31.6180 N.3   205  HIS205     -0.1241
     87  CA        24.6360   62.9950   31.4870 C.3   205  HIS205      0.1621
     88  C         24.8030   62.5890   30.0410 C.2   205  HIS205      0.2264
     89  O         24.2800   63.2440   29.1370 O.2   205  HIS205     -0.2867
     90  CB        23.2910   63.6750   31.6870 C.3   205  HIS205      0.0745
     91  CG        22.9690   63.9510   33.1160 C.ar  205  HIS205      0.0817
     92  ND1       22.8650   62.9440   34.0580 N.ar  205  HIS205     -0.2268
     93  CD2       22.7400   65.1070   33.7790 C.ar  205  HIS205      0.1154
     94  CE1       22.5880   63.4750   35.2360 C.ar  205  HIS205      0.1986
     95  NE2       22.5090   64.7870   35.0920 N.ar  205  HIS205     -0.2212
     96  N         27.4070   65.2310   37.4390 N.3   233  GLU233     -0.1245
     97  CA        26.2350   64.3520   37.4360 C.3   233  GLU233      0.1567
     98  C         26.3750   63.2010   36.4650 C.2   233  GLU233      0.2260
     99  O         25.4450   62.8770   35.7260 O.2   233  GLU233     -0.2867
    100  CB        24.9930   65.1810   37.0850 C.3   233  GLU233      0.0388
    101  CG        24.8480   66.4470   37.9220 C.3   233  GLU233      0.1160
    102  CD        23.5780   67.2290   37.6090 C.2   233  GLU233      0.3649
    103  OE1       22.6440   66.6250   37.0610 O.co2 233  GLU233     -0.2457
    104  OE2       23.5230   68.4320   37.9300 O.co2 233  GLU233     -0.2457
    105  N         25.4650   60.5380   39.2310 N.3   273  TRP273     -0.1241
    106  CA        24.1240   60.9570   39.6370 C.3   273  TRP273      0.1605
    107  C         23.2700   59.8420   40.2250 C.2   273  TRP273      0.2264
    108  O         22.2220   59.4910   39.6880 O.2   273  TRP273     -0.2867
    109  CB        23.4050   61.6030   38.4510 C.3   273  TRP273      0.0550
    110  CG        22.3870   62.5980   38.8910 C.ar  273  TRP273      0.0003
    111  CD1       21.0540   62.5820   38.6280 C.ar  273  TRP273      0.0946
    112  CD2       22.6240   63.7540   39.7110 C.ar  273  TRP273      0.0152
    113  NE1       20.4360   63.6460   39.2410 N.ar  273  TRP273     -0.2442
    114  CE2       21.3710   64.3700   39.9220 C.ar  273  TRP273      0.0810
    115  CE3       23.7640   64.3020   40.3160 C.ar  273  TRP273      0.0012
    116  CZ2       21.2350   65.5440   40.6820 C.ar  273  TRP273      0.0191
    117  CZ3       23.6240   65.4670   41.0720 C.ar  273  TRP273      0.0001
    118  CH2       22.3670   66.0650   41.2600 C.ar  273  TRP273      0.0015
    119  N         17.2390   58.5590   37.8440 N.3   281  TRP281     -0.1241
    120  CA        16.2070   59.4330   37.2810 C.3   281  TRP281      0.1605
    121  C         15.9540   59.2100   35.7940 C.2   281  TRP281      0.2264
    122  O         14.9330   59.6500   35.2670 O.2   281  TRP281     -0.2867
    123  CB        16.6090   60.9050   37.4430 C.3   281  TRP281      0.0550
    124  CG        17.6900   61.3440   36.4700 C.ar  281  TRP281      0.0003
    125  CD1       18.9290   60.7890   36.3200 C.ar  281  TRP281      0.0946
    126  CD2       17.6220   62.4280   35.5210 C.ar  281  TRP281      0.0152
    127  NE1       19.6390   61.4590   35.3500 N.ar  281  TRP281     -0.2442
    128  CE2       18.8670   62.4730   34.8530 C.ar  281  TRP281      0.0810
    129  CE3       16.6440   63.3750   35.1990 C.ar  281  TRP281      0.0012
    130  CZ2       19.1460   63.4130   33.8510 C.ar  281  TRP281      0.0191
    131  CZ3       16.9230   64.3120   34.2050 C.ar  281  TRP281      0.0001
    132  CH2       18.1700   64.3300   33.5540 C.ar  281  TRP281      0.0015
    133  N         12.5060   59.9850   32.7650 N.3   285  VAL285     -0.1245
    134  CA        12.7180   61.1730   31.9410 C.3   285  VAL285      0.1561
    135  C         13.0030   60.8670   30.4710 C.2   285  VAL285      0.2260
    136  O         12.6170   61.6290   29.5800 O.2   285  VAL285     -0.2867
    137  CB        13.8930   62.0180   32.4890 C.3   285  VAL285      0.0252
    138  CG1       14.1790   63.1820   31.5530 C.3   285  VAL285      0.0019
    139  CG2       13.5550   62.5310   33.8760 C.3   285  VAL285      0.0019
@<TRIPOS>BOND
     1    89    88    2
     2   136   135    2
     3    88    87    1
     4   135   134    1
     5    87    86    1
     6    87    90    1
     7   138   137    1
     8    90    91    1
     9    71    70    2
    10   134   137    1
    11   134   133    1
    12    70    69    1
    13   137   139    1
    14    69    72    1
    15    69    68    1
    16    72    73    1
    17    91    93   ar
    18    91    92   ar
    19    75    74   ar
    20    74    76   ar
    21    74    73    1
    22   132   130   ar
    23   132   131   ar
    24    84    83    2
    25    93    95   ar
    26   130   128   ar
    27    79    78    1
    28    79    80    2
    29    81    78    1
    30    81    82    1
    31    77    78    1
    32    92    94   ar
    33    68    62   am
    34   131   129   ar
    35    83    85   am
    36    83    82    1
    37   128   127   ar
    38   128   126   ar
    39    95    94   ar
    40    63    62    2
    41    62    61    1
    42   129   126   ar
    43   122   121    2
    44   127   125   ar
    45   126   124   ar
    46    99    98    2
    47    45    43   ar
    48    45    46   ar
    49   121   120    1
    50    66    65    2
    51   125   124   ar
    52    43    42   ar
    53    98    97    1
    54   124   123    1
    55    61    60    1
    56    61    64    1
    57    48    46   ar
    58    48    50   ar
    59    46    44   ar
    60    65    67   am
    61    65    64    1
    62   103   102   ar
    63   100    97    1
    64   100   101    1
    65   120   123    1
    66   120   119    1
    67    97    96    1
    68   102   101    1
    69   102   104   ar
    70    50    49   ar
    71    42    44   ar
    72    42    41    1
    73    39    38    1
    74    39    40    2
    75    44    47   ar
    76    38    41    1
    77    38    37    1
    78   109   110    1
    79   109   106    1
    80    51    52    1
    81   111   110   ar
    82   111   113   ar
    83    49    47   ar
    84   110   112   ar
    85   105   106    1
    86   113   114   ar
    87   106   107    1
    88   108   107    2
    89   112   114   ar
    90   112   115   ar
    91    59    57   am
    92   114   116   ar
    93    52    55    1
    94    52    53    1
    95    35    36   ar
    96    35    33   ar
    97    56    55    1
    98    56    57    1
    99   115   117   ar
   100    36    34   ar
   101   116   118   ar
   102    57    58    2
   103    53    54    2
   104    26    25    1
   105    33    32   ar
   106   117   118   ar
   107     9     7   ar
   108    25    24    1
   109    34    32   ar
   110    32    31    1
   111    24    23    1
   112    16    15    2
   113     7     6    1
   114     7     8   ar
   115     6     5    1
   116     4     3    2
   117    23    22    1
   118    17    15   am
   119    31    28    1
   120    15    14    1
   121     5     2    1
   122    28    29    1
   123    28    27    1
   124     3     2    1
   125     3    10   am
   126    22    19    1
   127     2     1    1
   128    29    30    2
   129    14    11    1
   130    19    20    1
   131    19    18    1
   132    11    10    1
   133    11    12    1
   134    20    21    2
   135    13    12    2
