@<TRIPOS>MOLECULE
tmp/1fhdA00.pdb
 159 155 0 0 0
SMALL
GASTEIGER

@<TRIPOS>ATOM
      1  N        -62.6050   20.7290   63.9760 N.3    43  GLU43      -0.1231
      2  CA       -62.3620   20.0790   62.6940 C.3    43  GLU43       0.1699
      3  C        -63.2670   18.8560   62.5250 C.2    43  GLU43       0.2592
      4  O        -63.6910   18.5430   61.4070 O.2    43  GLU43      -0.2718
      5  CB       -60.8950   19.6590   62.5700 C.3    43  GLU43       0.0402
      6  CG       -60.5880   18.9390   61.2790 C.3    43  GLU43       0.1161
      7  CD       -59.1440   18.4920   61.1820 C.2    43  GLU43       0.3649
      8  OE1      -58.5290   18.2210   62.2370 O.co2  43  GLU43      -0.2457
      9  OE2      -58.6380   18.3950   60.0450 O.co2  43  GLU43      -0.2457
     10  N        -63.5690   18.1790   63.6330 N.am   44  ASN44      -0.1974
     11  CA       -64.4210   16.9870   63.5970 C.3    44  ASN44       0.1688
     12  C        -65.3270   16.7810   64.8110 C.2    44  ASN44       0.2292
     13  O        -66.3740   16.1530   64.6930 O.2    44  ASN44      -0.2864
     14  CB       -63.5720   15.7170   63.4470 C.3    44  ASN44       0.1181
     15  CG       -62.8920   15.6210   62.0980 C.2    44  ASN44       0.2629
     16  OD1      -61.6790   15.7810   61.9930 O.2    44  ASN44      -0.2716
     17  ND2      -63.6710   15.3620   61.0610 N.am   44  ASN44      -0.0877
     18  N        -69.2600   17.3500   64.5680 N.3    47  LYS47      -0.1245
     19  CA       -69.9750   16.7440   63.4590 C.3    47  LYS47       0.1561
     20  C        -70.9520   15.7160   64.0200 C.2    47  LYS47       0.2260
     21  O        -70.8560   15.3220   65.1850 O.2    47  LYS47      -0.2867
     22  CB       -68.9890   16.0840   62.4870 C.3    47  LYS47       0.0271
     23  CG       -68.1580   17.0950   61.7130 C.3    47  LYS47       0.0035
     24  CD       -67.0750   16.4520   60.8610 C.3    47  LYS47       0.0206
     25  CE       -66.2910   17.5270   60.1220 C.3    47  LYS47       0.1093
     26  NZ       -65.1010   16.9900   59.3980 N.3    47  LYS47      -0.1314
     27  N        -69.4270   23.6910   63.6370 N.3    80  HIS80      -0.1241
     28  CA       -69.3590   22.9020   62.4090 C.3    80  HIS80       0.1621
     29  C        -69.4860   21.4180   62.7590 C.2    80  HIS80       0.2264
     30  O        -68.6730   20.9080   63.5280 O.2    80  HIS80      -0.2867
     31  CB       -67.9970   23.1620   61.7510 C.3    80  HIS80       0.0745
     32  CG       -67.7730   22.4090   60.4730 C.ar   80  HIS80       0.0817
     33  ND1      -68.2330   22.8630   59.2550 N.ar   80  HIS80      -0.2268
     34  CD2      -67.1070   21.2620   60.2170 C.ar   80  HIS80       0.1154
     35  CE1      -67.8560   22.0290   58.3070 C.ar   80  HIS80       0.1986
     36  NE2      -67.1690   21.0490   58.8660 N.ar   80  HIS80      -0.2212
     37  N        -74.9510   17.5770   57.4300 N.3    84  TRP84      -0.1241
     38  CA       -73.9910   17.3300   56.3650 C.3    84  TRP84       0.1605
     39  C        -74.1380   15.8910   55.8690 C.2    84  TRP84       0.2264
     40  O        -74.3640   14.9750   56.6620 O.2    84  TRP84      -0.2867
     41  CB       -72.5800   17.5770   56.9090 C.3    84  TRP84       0.0550
     42  CG       -71.4960   17.4870   55.8930 C.ar   84  TRP84       0.0003
     43  CD1      -71.5840   17.8050   54.5670 C.ar   84  TRP84       0.0946
     44  CD2      -70.1390   17.1070   56.1270 C.ar   84  TRP84       0.0152
     45  NE1      -70.3600   17.6460   53.9600 N.ar   84  TRP84      -0.2442
     46  CE2      -69.4540   17.2180   54.8950 C.ar   84  TRP84       0.0810
     47  CE3      -69.4300   16.6840   57.2610 C.ar   84  TRP84       0.0012
     48  CZ2      -68.0910   16.9190   54.7630 C.ar   84  TRP84       0.0191
     49  CZ3      -68.0720   16.3880   57.1290 C.ar   84  TRP84       0.0001
     50  CH2      -67.4190   16.5080   55.8870 C.ar   84  TRP84       0.0015
     51  N        -69.8470   11.9200   56.9990 N.3    87  GLN87      -0.1245
     52  CA       -69.6410   11.6020   58.4080 C.3    87  GLN87       0.1566
     53  C        -70.9700   11.5450   59.1350 C.2    87  GLN87       0.2260
     54  O        -71.1260   12.0770   60.2400 O.2    87  GLN87      -0.2867
     55  CB       -68.6870   12.6050   59.0710 C.3    87  GLN87       0.0367
     56  CG       -67.2440   12.3660   58.6640 C.3    87  GLN87       0.0905
     57  CD       -66.2830   13.3910   59.2290 C.2    87  GLN87       0.2608
     58  OE1      -65.9430   13.3610   60.4170 O.2    87  GLN87      -0.2717
     59  NE2      -65.8370   14.3060   58.3770 N.am   87  GLN87      -0.0878
     60  N        -74.2150   22.0460   55.4460 N.3   126  ASN126     -0.1225
     61  CA       -72.9380   22.0240   54.7540 C.3   126  ASN126      0.1785
     62  C        -73.0600   21.2740   53.4290 C.2   126  ASN126      0.2597
     63  O        -73.6720   20.2040   53.3660 O.2   126  ASN126     -0.2718
     64  CB       -71.8920   21.3540   55.6600 C.3   126  ASN126      0.1169
     65  CG       -70.4670   21.5550   55.1760 C.2   126  ASN126      0.2627
     66  OD1      -70.1010   22.6310   54.7110 O.2   126  ASN126     -0.2716
     67  ND2      -69.6480   20.5180   55.3080 N.am  126  ASN126     -0.0877
     68  N        -72.5090   21.8730   52.3750 N.am  127  GLU127     -0.1979
     69  CA       -72.4690   21.2810   51.0410 C.3   127  GLU127      0.1602
     70  C        -73.7860   20.7360   50.4880 C.2   127  GLU127      0.2287
     71  O        -73.8840   19.5650   50.1170 O.2   127  GLU127     -0.2864
     72  CB       -71.3850   20.1960   51.0420 C.3   127  GLU127      0.0415
     73  CG       -69.9930   20.7810   51.3400 C.3   127  GLU127      0.1163
     74  CD       -68.9440   19.7430   51.7110 C.2   127  GLU127      0.3649
     75  OE1      -69.1230   18.5470   51.4020 O.co2 127  GLU127     -0.2457
     76  OE2      -67.9200   20.1400   52.3090 O.co2 127  GLU127     -0.2457
     77  N        -68.2620   24.5220   49.0880 N.3   171  TYR171     -0.1241
     78  CA       -66.9920   24.6480   48.3860 C.3   171  TYR171      0.1605
     79  C        -67.2340   24.7500   46.8820 C.2   171  TYR171      0.2264
     80  O        -68.3090   24.3980   46.3930 O.2   171  TYR171     -0.2867
     81  CB       -66.0880   23.4520   48.7070 C.3   171  TYR171      0.0534
     82  CG       -66.5870   22.1260   48.1850 C.ar  171  TYR171     -0.0201
     83  CD1      -66.3940   21.7630   46.8500 C.ar  171  TYR171     -0.0009
     84  CD2      -67.2430   21.2280   49.0260 C.ar  171  TYR171     -0.0009
     85  CE1      -66.8370   20.5380   46.3650 C.ar  171  TYR171      0.0417
     86  CE2      -67.6980   19.9920   48.5490 C.ar  171  TYR171      0.0417
     87  CZ       -67.4910   19.6550   47.2200 C.ar  171  TYR171      0.1957
     88  OH       -67.9350   18.4450   46.7390 O.3   171  TYR171     -0.2866
     89  N        -65.6880   27.7410   51.8350 N.3   203  GLN203     -0.1245
     90  CA       -64.6040   26.8780   52.2950 C.3   203  GLN203      0.1566
     91  C        -63.2160   27.2470   51.7990 C.2   203  GLN203      0.2260
     92  O        -62.2770   27.3460   52.5870 O.2   203  GLN203     -0.2867
     93  CB       -64.9220   25.4330   51.9310 C.3   203  GLN203      0.0367
     94  CG       -66.0750   24.8690   52.7350 C.3   203  GLN203      0.0905
     95  CD       -66.3760   23.4380   52.3770 C.2   203  GLN203      0.2608
     96  OE1      -65.5190   22.7310   51.8540 O.2   203  GLN203     -0.2717
     97  NE2      -67.5980   22.9950   52.6700 N.am  203  GLN203     -0.0878
     98  N        -61.0910   25.5160   49.6440 N.3   205  HIS205     -0.1241
     99  CA       -60.1030   24.4430   49.6120 C.3   205  HIS205      0.1621
    100  C        -59.5740   24.5770   48.1900 C.2   205  HIS205      0.2264
    101  O        -60.0850   23.9580   47.2470 O.2   205  HIS205     -0.2867
    102  CB       -60.7640   23.0830   49.8400 C.3   205  HIS205      0.0745
    103  CG       -61.1080   22.8200   51.2740 C.ar  205  HIS205      0.0817
    104  ND1      -60.1500   22.7000   52.2590 N.ar  205  HIS205     -0.2268
    105  CD2      -62.3030   22.6810   51.8950 C.ar  205  HIS205      0.1154
    106  CE1      -60.7410   22.4950   53.4230 C.ar  205  HIS205      0.1986
    107  NE2      -62.0480   22.4800   53.2300 N.ar  205  HIS205     -0.2212
    108  N        -62.7450   27.2990   55.4710 N.3   233  GLU233     -0.1245
    109  CA       -61.8270   26.1630   55.5000 C.3   233  GLU233      0.1567
    110  C        -60.6350   26.3280   54.5580 C.2   233  GLU233      0.2260
    111  O        -60.2480   25.4000   53.8490 O.2   233  GLU233     -0.2867
    112  CB       -62.6050   24.8950   55.1390 C.3   233  GLU233      0.0388
    113  CG       -63.8680   24.6930   55.9800 C.3   233  GLU233      0.1160
    114  CD       -64.6790   23.4720   55.5680 C.2   233  GLU233      0.3649
    115  OE1      -64.1200   22.5830   54.8930 O.co2 233  GLU233     -0.2457
    116  OE2      -65.8750   23.4000   55.9340 O.co2 233  GLU233     -0.2457
    117  N        -58.0550   25.6280   57.5430 N.3   273  TRP273     -0.1241
    118  CA       -58.4110   24.2790   57.9570 C.3   273  TRP273      0.1605
    119  C        -57.2670   23.4870   58.5780 C.2   273  TRP273      0.2264
    120  O        -56.8850   22.4250   58.0850 O.2   273  TRP273     -0.2867
    121  CB       -59.0120   23.5070   56.7800 C.3   273  TRP273      0.0550
    122  CG       -59.9620   22.4540   57.2460 C.ar  273  TRP273      0.0003
    123  CD1      -59.8410   21.1050   57.0870 C.ar  273  TRP273      0.0946
    124  CD2      -61.1520   22.6650   58.0100 C.ar  273  TRP273      0.0152
    125  NE1      -60.8800   20.4600   57.7120 N.ar  273  TRP273     -0.2442
    126  CE2      -61.7020   21.3950   58.2860 C.ar  273  TRP273      0.0810
    127  CE3      -61.8080   23.8100   58.4930 C.ar  273  TRP273      0.0012
    128  CZ2      -62.8820   21.2320   59.0250 C.ar  273  TRP273      0.0191
    129  CZ3      -62.9780   23.6510   59.2280 C.ar  273  TRP273      0.0001
    130  CH2      -63.5030   22.3670   59.4850 C.ar  273  TRP273      0.0015
    131  N        -55.6040   17.3740   56.4390 N.3   281  TRP281     -0.1241
    132  CA       -56.4360   16.3110   55.8630 C.3   281  TRP281      0.1605
    133  C        -56.1340   16.0460   54.3830 C.2   281  TRP281      0.2264
    134  O        -56.5180   15.0070   53.8400 O.2   281  TRP281     -0.2867
    135  CB       -57.9100   16.7030   55.9420 C.3   281  TRP281      0.0550
    136  CG       -58.2650   17.7950   54.9530 C.ar  281  TRP281      0.0003
    137  CD1      -57.8320   19.0940   54.9720 C.ar  281  TRP281      0.0946
    138  CD2      -59.0590   17.6570   53.7620 C.ar  281  TRP281      0.0152
    139  NE1      -58.3020   19.7700   53.8690 N.ar  281  TRP281     -0.2442
    140  CE2      -59.0560   18.9110   53.1090 C.ar  281  TRP281      0.0810
    141  CE3      -59.7680   16.5940   53.1810 C.ar  281  TRP281      0.0012
    142  CZ2      -59.7330   19.1310   51.9020 C.ar  281  TRP281      0.0191
    143  CZ3      -60.4430   16.8130   51.9810 C.ar  281  TRP281      0.0001
    144  CH2      -60.4180   18.0720   51.3550 C.ar  281  TRP281      0.0015
    145  N        -54.1190   12.5600   52.8590 N.3   284  ASP284     -0.1225
    146  CA       -54.9320   11.3530   52.9560 C.3   284  ASP284      0.1805
    147  C        -56.0720   11.2780   51.9370 C.2   284  ASP284      0.2597
    148  O        -56.6470   10.2080   51.7220 O.2   284  ASP284     -0.2718
    149  CB       -55.4980   11.1950   54.3820 C.3   284  ASP284      0.1424
    150  CG       -55.7870   12.5410   55.0710 C.2   284  ASP284      0.3668
    151  OD1      -54.8090   13.2640   55.3950 O.co2 284  ASP284     -0.2456
    152  OD2      -56.9870   12.8810   55.2980 O.co2 284  ASP284     -0.2456
    153  N        -56.4020   12.3970   51.3000 N.am  285  VAL285     -0.1980
    154  CA       -57.4830   12.3960   50.3240 C.3   285  VAL285      0.1595
    155  C        -56.9880   12.5750   48.8910 C.2   285  VAL285      0.2287
    156  O        -57.5610   12.0110   47.9550 O.2   285  VAL285     -0.2864
    157  CB       -58.5210   13.4950   50.6530 C.3   285  VAL285      0.0276
    158  CG1      -59.6190   13.5180   49.5960 C.3   285  VAL285      0.0022
    159  CG2      -59.1200   13.2380   52.0310 C.3   285  VAL285      0.0022
@<TRIPOS>BOND
     1    85    83   ar
     2    85    87   ar
     3    80    79    2
     4    88    87    1
     5    83    82   ar
     6    79    78    1
     7    87    86   ar
     8   101   100    2
     9   156   155    2
    10    82    81    1
    11    82    84   ar
    12   100    99    1
    13    78    81    1
    14    78    77    1
    15    86    84   ar
    16   155   154    1
    17   158   157    1
    18    99    98    1
    19    99   102    1
    20   102   103    1
    21    71    70    2
    22   154   157    1
    23   154   153    1
    24    70    69    1
    25   157   159    1
    26    69    72    1
    27    69    68    1
    28    72    73    1
    29   103   105   ar
    30   103   104   ar
    31   153   147   am
    32    73    74    1
    33   144   142   ar
    34   144   143   ar
    35    75    74   ar
    36    74    76   ar
    37   148   147    2
    38    91    90    1
    39    91    92    2
    40    89    90    1
    41    96    95    2
    42   105   107   ar
    43   142   140   ar
    44    93    90    1
    45    93    94    1
    46   147   146    1
    47   143   141   ar
    48   104   106   ar
    49    68    62   am
    50    95    97   am
    51    95    94    1
    52   145   146    1
    53   146   149    1
    54   140   138   ar
    55   140   139   ar
    56   141   138   ar
    57   107   106   ar
    58    63    62    2
    59    62    61    1
    60   138   136   ar
    61   134   133    2
    62   111   110    2
    63   139   137   ar
    64    45    43   ar
    65    45    46   ar
    66   149   150    1
    67   133   132    1
    68   110   109    1
    69    43    42   ar
    70    66    65    2
    71    61    60    1
    72    61    64    1
    73    48    46   ar
    74    48    50   ar
    75   115   114   ar
    76    46    44   ar
    77   136   137   ar
    78   136   135    1
    79   150   152   ar
    80   150   151   ar
    81   112   109    1
    82   112   113    1
    83    65    67   am
    84    65    64    1
    85   108   109    1
    86   114   116   ar
    87   114   113    1
    88   132   135    1
    89   132   131    1
    90    39    38    1
    91    39    40    2
    92    50    49   ar
    93    42    44   ar
    94    42    41    1
    95    44    47   ar
    96    38    41    1
    97    38    37    1
    98   121   122    1
    99   121   118    1
   100    51    52    1
   101   123   122   ar
   102   123   125   ar
   103    49    47   ar
   104   122   124   ar
   105   117   118    1
   106   125   126   ar
   107   118   119    1
   108   124   126   ar
   109   124   127   ar
   110   120   119    2
   111   126   128   ar
   112    35    36   ar
   113    35    33   ar
   114    59    57   am
   115    52    55    1
   116    52    53    1
   117   127   129   ar
   118    56    55    1
   119    56    57    1
   120    36    34   ar
   121   128   130   ar
   122    53    54    2
   123   129   130   ar
   124    57    58    2
   125    33    32   ar
   126    26    25    1
   127     9     7   ar
   128    25    24    1
   129    34    32   ar
   130    32    31    1
   131    24    23    1
   132    17    15   am
   133     7     6    1
   134     7     8   ar
   135     6     5    1
   136     4     3    2
   137    23    22    1
   138    31    28    1
   139    16    15    2
   140    15    14    1
   141    28    29    1
   142    28    27    1
   143    22    19    1
   144     3     2    1
   145     3    10   am
   146     5     2    1
   147     2     1    1
   148    29    30    2
   149    14    11    1
   150    19    20    1
   151    19    18    1
   152    11    10    1
   153    11    12    1
   154    20    21    2
   155    13    12    2
