@<TRIPOS>MOLECULE
tmp/1fheA00.pdb
 149 146 0 0 0
SMALL
GASTEIGER

@<TRIPOS>ATOM
      1  N         93.9340   97.3970   55.9940 N.3     6  TYR6       -0.1227
      2  CA        94.4650   98.5420   55.2600 C.3     6  TYR6        0.1736
      3  C         94.6510   99.6650   56.2700 C.2     6  TYR6        0.2595
      4  O         94.0430   99.6520   57.3420 O.2     6  TYR6       -0.2718
      5  CB        93.4790   99.0020   54.1870 C.3     6  TYR6        0.0548
      6  CG        94.1120   99.5460   52.9300 C.ar    6  TYR6       -0.0200
      7  CD1       94.5060   98.6930   51.9020 C.ar    6  TYR6       -0.0009
      8  CD2       94.2600  100.9180   52.7380 C.ar    6  TYR6       -0.0009
      9  CE1       95.0220   99.1880   50.7120 C.ar    6  TYR6        0.0417
     10  CE2       94.7760  101.4240   51.5490 C.ar    6  TYR6        0.0417
     11  CZ        95.1520  100.5520   50.5390 C.ar    6  TYR6        0.1957
     12  OH        95.6280  101.0310   49.3420 O.3     6  TYR6       -0.2866
     13  N         95.4930  100.6340   55.9330 N.am    7  TRP7       -0.1976
     14  CA        95.7150  101.7630   56.8230 C.3     7  TRP7        0.1640
     15  C         94.6170  102.7830   56.5790 C.2     7  TRP7        0.2290
     16  O         93.9570  102.7410   55.5400 O.2     7  TRP7       -0.2864
     17  CB        97.0680  102.4300   56.5660 C.3     7  TRP7        0.0576
     18  CG        97.9940  101.7130   55.6350 C.ar    7  TRP7        0.0006
     19  CD1       97.7910  101.4460   54.3080 C.ar    7  TRP7        0.0946
     20  CD2       99.3080  101.2410   55.9420 C.ar    7  TRP7        0.0152
     21  NE1       98.9040  100.8380   53.7750 N.ar    7  TRP7       -0.2442
     22  CE2       99.8470  100.7010   54.7540 C.ar    7  TRP7        0.0810
     23  CE3      100.0830  101.2240   57.1100 C.ar    7  TRP7        0.0012
     24  CZ2      101.1310  100.1470   54.7030 C.ar    7  TRP7        0.0191
     25  CZ3      101.3580  100.6740   57.0560 C.ar    7  TRP7        0.0001
     26  CH2      101.8700  100.1430   55.8600 C.ar    7  TRP7        0.0015
     27  N         92.9600  101.5540   48.0920 N.3    12  LEU12      -0.1245
     28  CA        92.2230  100.6720   47.1950 C.3    12  LEU12       0.1561
     29  C         91.2770   99.8280   48.0410 C.2    12  LEU12       0.2260
     30  O         90.8270   98.7630   47.6160 O.2    12  LEU12      -0.2867
     31  CB        93.1750   99.7510   46.4280 C.3    12  LEU12       0.0270
     32  CG        94.2110  100.3880   45.5020 C.3    12  LEU12       0.0019
     33  CD1       94.7080   99.3410   44.5200 C.3    12  LEU12       0.0001
     34  CD2       93.6060  101.5710   44.7600 C.3    12  LEU12       0.0001
     35  N        104.0210  100.9690   59.8820 N.3    37  ARG37      -0.1245
     36  CA       104.3750  100.2810   58.6410 C.3    37  ARG37       0.1563
     37  C        105.1120   99.0510   59.1360 C.2    37  ARG37       0.2260
     38  O        105.0020   97.9630   58.5720 O.2    37  ARG37      -0.2867
     39  CB       105.3270  101.0950   57.7630 C.3    37  ARG37       0.0307
     40  CG       106.2620  100.2030   56.9300 C.3    37  ARG37       0.0489
     41  CD       106.4260  100.6860   55.4980 C.3    37  ARG37       0.2205
     42  NE       105.7120   99.8520   54.5340 N.pl3  37  ARG37      -0.0865
     43  CZ       106.2600   99.3510   53.4290 C.cat  37  ARG37       0.5346
     44  NH1      107.5340   99.5990   53.1490 N.pl3  37  ARG37       0.1354
     45  NH2      105.5320   98.6170   52.5960 N.pl3  37  ARG37       0.1354
     46  N        103.0990   96.7040   60.9050 N.3    40  TRP40      -0.1227
     47  CA       102.4750   95.8780   59.8910 C.3    40  TRP40       0.1737
     48  C        103.5160   94.9030   59.3520 C.2    40  TRP40       0.2595
     49  O        103.2940   93.6920   59.3440 O.2    40  TRP40      -0.2718
     50  CB       101.9340   96.7530   58.7590 C.3    40  TRP40       0.0564
     51  CG       101.7700   96.0160   57.4810 C.ar   40  TRP40       0.0003
     52  CD1      102.2020   96.4080   56.2500 C.ar   40  TRP40       0.0946
     53  CD2      101.1440   94.7410   57.3030 C.ar   40  TRP40       0.0152
     54  NE1      101.8850   95.4560   55.3120 N.ar   40  TRP40      -0.2442
     55  CE2      101.2340   94.4200   55.9300 C.ar   40  TRP40       0.0810
     56  CE3      100.5150   93.8350   58.1700 C.ar   40  TRP40       0.0012
     57  CZ2      100.7190   93.2300   55.4020 C.ar   40  TRP40       0.0191
     58  CZ3      100.0020   92.6530   57.6440 C.ar   40  TRP40       0.0001
     59  CH2      100.1070   92.3630   56.2720 C.ar   40  TRP40       0.0015
     60  N        104.6520   95.4410   58.9140 N.am   41  MET41      -0.1979
     61  CA       105.7480   94.6440   58.3650 C.3    41  MET41       0.1605
     62  C        105.8950   93.2770   59.0270 C.2    41  MET41       0.2287
     63  O        105.7540   92.2380   58.3780 O.2    41  MET41      -0.2864
     64  CB       107.0670   95.4070   58.5050 C.3    41  MET41       0.0413
     65  CG       107.3240   96.4320   57.4140 C.3    41  MET41       0.0598
     66  SD       106.5510   95.9800   55.8540 S.3    41  MET41      -0.1393
     67  CE       107.6440   94.6590   55.3170 C.3    41  MET41       0.0692
     68  N        103.0510   91.0650   58.2350 N.3    44  LYS44      -0.1245
     69  CA       102.8520   90.7500   56.8220 C.3    44  LYS44       0.1561
     70  C        102.9110   89.2650   56.4550 C.2    44  LYS44       0.2260
     71  O        102.3230   88.8500   55.4540 O.2    44  LYS44      -0.2867
     72  CB       103.8620   91.5330   55.9700 C.3    44  LYS44       0.0271
     73  CG       104.1440   90.9200   54.6030 C.3    44  LYS44       0.0035
     74  CD       103.8170   91.8770   53.4750 C.3    44  LYS44       0.0206
     75  CE       104.1050   91.2380   52.1310 C.3    44  LYS44       0.1093
     76  NZ       104.1520   92.2470   51.0450 N.3    44  LYS44      -0.1314
     77  N         99.8730   90.9540   51.1370 N.3    53  ASN53      -0.1225
     78  CA        99.5980   92.2910   50.6170 C.3    53  ASN53       0.1785
     79  C         98.4830   92.9870   51.3950 C.2    53  ASN53       0.2597
     80  O         98.0480   92.5050   52.4420 O.2    53  ASN53      -0.2718
     81  CB        99.2060   92.2130   49.1410 C.3    53  ASN53       0.1169
     82  CG        99.2150   93.5630   48.4640 C.2    53  ASN53       0.2627
     83  OD1      100.2690   94.1650   48.2620 O.2    53  ASN53      -0.2716
     84  ND2       98.0320   94.0480   48.1070 N.am   53  ASN53      -0.0877
     85  N         98.0380   94.1260   50.8680 N.am   54  LEU54      -0.1966
     86  CA        96.9650   94.9190   51.4640 C.3    54  LEU54       0.1713
     87  C         96.1470   95.5430   50.3260 C.2    54  LEU54       0.2458
     88  O         96.6990   95.9750   49.3100 O.2    54  LEU54      -0.2730
     89  CB        97.5510   96.0200   52.3560 C.3    54  LEU54       0.0310
     90  CG        97.3520   95.9210   53.8740 C.3    54  LEU54       0.0022
     91  CD1       97.7910   94.5630   54.3720 C.3    54  LEU54       0.0001
     92  CD2       98.1590   97.0050   54.5660 C.3    54  LEU54       0.0001
     93  N         94.8130   95.6080   50.4770 N.am   55  PRO55      -0.2727
     94  CA        94.0490   95.1390   51.6360 C.3    55  PRO55       0.1402
     95  C         93.8760   93.6280   51.6500 C.2    55  PRO55       0.2269
     96  O         93.6500   93.0150   50.6100 O.2    55  PRO55      -0.2865
     97  CB        92.7140   95.8560   51.4840 C.3    55  PRO55       0.0296
     98  CG        92.5560   96.0170   50.0070 C.3    55  PRO55       0.0237
     99  CD        93.9410   96.1510   49.4250 C.3    55  PRO55       0.0939
    100  N         94.2760   91.1820   47.5530 N.3    66  GLN66      -0.1231
    101  CA        94.1020   91.8900   46.2790 C.3    66  GLN66       0.1698
    102  C         92.7240   92.5530   46.2930 C.2    66  GLN66       0.2593
    103  O         91.7020   91.8750   46.1810 O.2    66  GLN66      -0.2718
    104  CB        94.1920   90.9390   45.0740 C.3    66  GLN66       0.0381
    105  CG        95.5750   90.3580   44.8090 C.3    66  GLN66       0.0905
    106  CD        96.4020   91.2290   43.8900 C.2    66  GLN66       0.2608
    107  OE1       95.8640   91.9840   43.0850 O.2    66  GLN66      -0.2717
    108  NE2       97.7200   91.1290   44.0080 N.am   66  GLN66      -0.0878
    109  N         92.7040   93.8750   46.4430 N.am   67  SER67      -0.1938
    110  CA        91.4590   94.6410   46.4770 C.3    67  SER67       0.2055
    111  C         90.3700   93.9930   45.6330 C.2    67  SER67       0.2642
    112  O         89.2870   93.6810   46.1270 O.2    67  SER67      -0.2714
    113  CB        91.7050   96.0660   45.9800 C.3    67  SER67       0.2130
    114  OG        92.3250   96.0600   44.7050 O.3    67  SER67      -0.2179
    115  N         90.6710   93.7860   44.3570 N.am   68  VAL68      -0.1977
    116  CA        89.7280   93.1750   43.4320 C.3    68  VAL68       0.1596
    117  C         89.4110   91.7320   43.8120 C.2    68  VAL68       0.2287
    118  O         88.2470   91.3430   43.9020 O.2    68  VAL68      -0.2864
    119  CB        90.2680   93.2040   41.9890 C.3    68  VAL68       0.0276
    120  CG1       89.6160   94.3360   41.2240 C.3    68  VAL68       0.0022
    121  CG2       91.7810   93.3660   41.9970 C.3    68  VAL68       0.0022
    122  N         90.8970   99.9940   36.8350 N.3    99  MET99      -0.1245
    123  CA        92.2240  100.0070   37.4340 C.3    99  MET99       0.1570
    124  C         93.1310  100.7710   36.4870 C.2    99  MET99       0.2261
    125  O         94.1060  101.3840   36.9150 O.2    99  MET99      -0.2867
    126  CB        92.7520   98.5850   37.6360 C.3    99  MET99       0.0387
    127  CG        92.9930   98.2190   39.0950 C.3    99  MET99       0.0595
    128  SD        93.0210   99.6510   40.1900 S.3    99  MET99      -0.1393
    129  CE        92.5870   98.8930   41.7630 C.3    99  MET99       0.0692
    130  N         95.4630  103.1040   38.4080 N.3   103  ILE103     -0.1245
    131  CA        96.8310  102.6340   38.2340 C.3   103  ILE103      0.1561
    132  C         97.6370  103.6970   37.4980 C.2   103  ILE103      0.2260
    133  O         98.6830  104.1360   37.9720 O.2   103  ILE103     -0.2867
    134  CB        96.8780  101.2980   37.4330 C.3   103  ILE103      0.0252
    135  CG1       96.9060  100.1050   38.3960 C.3   103  ILE103      0.0019
    136  CG2       98.1080  101.2550   36.5440 C.3   103  ILE103      0.0019
    137  CD1       97.5500  100.3710   39.7390 C.3   103  ILE103      0.0001
    138  N        102.2050  109.5550   44.7690 N.3   110  TYR110     -0.1241
    139  CA       103.0710  109.5820   45.9390 C.3   110  TYR110      0.1605
    140  C        104.4370  110.2170   45.6480 C.2   110  TYR110      0.2264
    141  O        105.1370  110.6550   46.5660 O.2   110  TYR110     -0.2867
    142  CB       103.2840  108.1540   46.4740 C.3   110  TYR110      0.0534
    143  CG       102.0140  107.3490   46.7310 C.ar  110  TYR110     -0.0201
    144  CD1      101.2830  106.7890   45.6750 C.ar  110  TYR110     -0.0009
    145  CD2      101.5910  107.0900   48.0310 C.ar  110  TYR110     -0.0009
    146  CE1      100.1660  105.9860   45.9140 C.ar  110  TYR110      0.0417
    147  CE2      100.4740  106.2870   48.2840 C.ar  110  TYR110      0.0417
    148  CZ        99.7720  105.7400   47.2190 C.ar  110  TYR110      0.1957
    149  OH        98.6880  104.9320   47.4510 O.3   110  TYR110     -0.2866
@<TRIPOS>BOND
     1   124   125    2
     2   124   123    1
     3   136   134    1
     4   122   123    1
     5   134   131    1
     6   134   135    1
     7   123   126    1
     8   132   133    2
     9   132   131    1
    10   126   127    1
    11   131   130    1
    12   135   137    1
    13   127   128    1
    14   128   129    1
    15   120   119    1
    16   119   121    1
    17   119   116    1
    18   107   106    2
    19   116   117    1
    20   116   115    1
    21   117   118    2
    22   106   108   am
    23   106   105    1
    24   115   111   am
    25    33    32    1
    26   114   113    1
    27    34    32    1
    28   138   139    1
    29   105   104    1
    30   104   101    1
    31    32    31    1
    32   111   112    2
    33   111   110    1
    34   140   139    1
    35   140   141    2
    36   144   146   ar
    37   144   143   ar
    38   146   148   ar
    39   139   142    1
    40   113   110    1
    41   103   102    2
    42   101   102    1
    43   101   100    1
    44   102   109   am
    45    31    28    1
    46   109   110    1
    47   142   143    1
    48   143   145   ar
    49    28    29    1
    50    28    27    1
    51   148   149    1
    52   148   147   ar
    53    30    29    2
    54   145   147   ar
    55    84    82   am
    56    83    82    2
    57    82    81    1
    58    81    78    1
    59    88    87    2
    60    12    11    1
    61    99    98    1
    62    99    93    1
    63    98    97    1
    64    87    93   am
    65    87    86    1
    66    93    94    1
    67    11     9   ar
    68    11    10   ar
    69    96    95    2
    70    78    77    1
    71    78    79    1
    72     9     7   ar
    73    85    79   am
    74    85    86    1
    75    76    75    1
    76    79    80    2
    77    86    89    1
    78    97    94    1
    79    10     8   ar
    80    94    95    1
    81     7     6   ar
    82    75    74    1
    83    89    90    1
    84    45    43    1
    85     8     6   ar
    86     6     5    1
    87    44    43    1
    88    43    42    2
    89    74    73    1
    90    21    19   ar
    91    21    22   ar
    92    90    91    1
    93    90    92    1
    94     5     2    1
    95    19    18   ar
    96    42    41    1
    97    73    72    1
    98    24    22   ar
    99    24    26   ar
   100    22    20   ar
   101     2     1    1
   102     2     3    1
   103    54    55   ar
   104    54    52   ar
   105    67    66    1
   106    57    55   ar
   107    57    59   ar
   108    71    70    2
   109    41    40    1
   110    16    15    2
   111    18    20   ar
   112    18    17    1
   113    66    65    1
   114    26    25   ar
   115    55    53   ar
   116    13     3   am
   117    13    14    1
   118    20    23   ar
   119    72    69    1
   120    52    51   ar
   121     3     4    2
   122    59    58   ar
   123    70    69    1
   124    17    14    1
   125    15    14    1
   126    69    68    1
   127    40    39    1
   128    25    23   ar
   129    53    51   ar
   130    53    56   ar
   131    65    64    1
   132    51    50    1
   133    58    56   ar
   134    39    36    1
   135    61    64    1
   136    61    60    1
   137    61    62    1
   138    63    62    2
   139    38    37    2
   140    36    37    1
   141    36    35    1
   142    50    47    1
   143    60    48   am
   144    49    48    2
   145    48    47    1
   146    47    46    1
