@<TRIPOS>MOLECULE
tmp/1fhfA01.pdb
 83 82 0 0 0
SMALL
GASTEIGER

@<TRIPOS>ATOM
      1  N          2.9610   56.2320  -15.6470 N.3    68  LEU68      -0.1231
      2  CA         1.6250   56.7340  -15.3550 C.3    68  LEU68       0.1678
      3  C          1.2500   56.7800  -13.8620 C.2    68  LEU68       0.2434
      4  O          0.7840   57.8100  -13.3640 O.2    68  LEU68      -0.2733
      5  CB         0.6030   55.9100  -16.1380 C.3    68  LEU68       0.0284
      6  CG         0.8140   55.9900  -17.6570 C.3    68  LEU68       0.0019
      7  CD1       -0.0220   54.9470  -18.3830 C.3    68  LEU68       0.0001
      8  CD2        0.4600   57.3910  -18.1300 C.3    68  LEU68       0.0001
      9  N          1.4550   55.6770  -13.1240 N.am   69  PRO69      -0.2729
     10  CA         1.1070   55.6810  -11.6990 C.3    69  PRO69       0.1401
     11  C          2.0730   56.3960  -10.7480 C.2    69  PRO69       0.2269
     12  O          1.7320   56.6160   -9.5850 O.2    69  PRO69      -0.2865
     13  CB         0.9920   54.1960  -11.3770 C.3    69  PRO69       0.0296
     14  CG         2.0410   53.6000  -12.2520 C.3    69  PRO69       0.0237
     15  CD         1.8060   54.3150  -13.5650 C.3    69  PRO69       0.0939
     16  N          2.7760   61.9280   -8.4310 N.3    73  SER73      -0.1217
     17  CA         2.0700   61.2610   -7.3410 C.3    73  SER73       0.1889
     18  C          2.9370   60.8570   -6.1340 C.2    73  SER73       0.2288
     19  O          2.7280   61.3730   -5.0340 O.2    73  SER73      -0.2866
     20  CB         1.3180   60.0460   -7.8960 C.3    73  SER73       0.2089
     21  OG         0.3070   59.6100   -7.0070 O.3    73  SER73      -0.2183
     22  N          1.4220   48.0000  -11.5720 N.3   138  LEU138     -0.1231
     23  CA         0.7110   48.6610  -10.4810 C.3   138  LEU138      0.1678
     24  C         -0.7700   48.8410  -10.8090 C.2   138  LEU138      0.2434
     25  O         -1.1260   49.4540  -11.8140 O.2   138  LEU138     -0.2733
     26  CB         1.3430   50.0190  -10.1940 C.3   138  LEU138      0.0284
     27  CG         2.7060   49.9680   -9.5070 C.3   138  LEU138      0.0019
     28  CD1        3.4180   51.3120   -9.6420 C.3   138  LEU138      0.0001
     29  CD2        2.5030   49.5880   -8.0470 C.3   138  LEU138      0.0001
     30  N         -1.6600   48.3220   -9.9480 N.am  139  PRO139     -0.2718
     31  CA        -3.1040   48.4290  -10.1640 C.3   139  PRO139      0.1535
     32  C         -3.6040   49.8640  -10.1950 C.2   139  PRO139      0.2598
     33  O         -3.0880   50.7260   -9.4840 O.2   139  PRO139     -0.2715
     34  CB        -3.6720   47.6620   -8.9840 C.3   139  PRO139      0.0310
     35  CG        -2.7220   48.0260   -7.9070 C.3   139  PRO139      0.0237
     36  CD        -1.3880   47.8160   -8.5920 C.3   139  PRO139      0.0939
     37  N         -4.6170   50.1050  -11.0230 N.am  140  ALA140     -0.1964
     38  CA        -5.2280   51.4250  -11.1470 C.3   140  ALA140      0.1713
     39  C         -6.5430   51.4270  -10.3630 C.2   140  ALA140      0.2458
     40  O         -7.1860   50.3810  -10.2000 O.2   140  ALA140     -0.2730
     41  CB        -5.4920   51.7460  -12.6110 C.3   140  ALA140      0.0333
     42  N         -6.9620   52.6040   -9.8680 N.am  141  PRO141     -0.2716
     43  CA        -8.2050   52.7280   -9.0990 C.3   141  PRO141      0.1536
     44  C         -9.5160   52.4250   -9.8420 C.2   141  PRO141      0.2598
     45  O        -10.5360   52.1510   -9.2040 O.2   141  PRO141     -0.2715
     46  CB        -8.1380   54.1640   -8.5650 C.3   141  PRO141      0.0310
     47  CG        -7.3330   54.8770   -9.5930 C.3   141  PRO141      0.0237
     48  CD        -6.2420   53.8890   -9.9110 C.3   141  PRO141      0.0939
     49  N         -9.5050   52.4690  -11.1730 N.am  142  PHE142     -0.1974
     50  CA       -10.7230   52.1780  -11.9270 C.3   142  PHE142      0.1639
     51  C        -10.8420   50.6900  -12.2760 C.2   142  PHE142      0.2290
     52  O        -11.6510   50.2910  -13.1220 O.2   142  PHE142     -0.2864
     53  CB       -10.8060   53.0510  -13.1930 C.3   142  PHE142      0.0560
     54  CG        -9.5650   53.0350  -14.0350 C.ar  142  PHE142     -0.0200
     55  CD1       -9.3180   51.9940  -14.9220 C.ar  142  PHE142     -0.0042
     56  CD2       -8.6330   54.0660  -13.9350 C.ar  142  PHE142     -0.0042
     57  CE1       -8.1580   51.9820  -15.6970 C.ar  142  PHE142     -0.0003
     58  CE2       -7.4700   54.0650  -14.7030 C.ar  142  PHE142     -0.0003
     59  CZ        -7.2330   53.0220  -15.5860 C.ar  142  PHE142     -0.0000
     60  N         -5.5620   62.8230   -4.7740 N.3   175  ARG175     -0.1245
     61  CA        -6.0820   63.9510   -5.5520 C.3   175  ARG175      0.1563
     62  C         -7.4490   63.7140   -6.1840 C.2   175  ARG175      0.2260
     63  O         -7.7710   62.5940   -6.5870 O.2   175  ARG175     -0.2867
     64  CB        -5.0890   64.3120   -6.6470 C.3   175  ARG175      0.0307
     65  CG        -3.7000   64.5750   -6.1210 C.3   175  ARG175      0.0489
     66  CD        -2.6840   64.4280   -7.2260 C.3   175  ARG175      0.2205
     67  NE        -2.8560   63.1630   -7.9370 N.pl3 175  ARG175     -0.0865
     68  CZ        -2.1520   62.8050   -9.0060 C.cat 175  ARG175      0.5346
     69  NH1       -1.2230   63.6200   -9.4900 N.pl3 175  ARG175      0.1354
     70  NH2       -2.3820   61.6400   -9.5970 N.pl3 175  ARG175      0.1354
     71  N         -8.9090   64.0680   -9.0940 N.3   177  SER177     -0.1202
     72  CA        -8.9820   63.3220  -10.3420 C.3   177  SER177      0.2020
     73  C         -9.0020   61.8080  -10.1940 C.2   177  SER177      0.2619
     74  O         -9.5730   61.1170  -11.0320 O.2   177  SER177     -0.2717
     75  CB        -7.8230   63.7270  -11.2540 C.3   177  SER177      0.2103
     76  OG        -6.5830   63.6130  -10.5830 O.3   177  SER177     -0.2182
     77  N         -8.3900   61.2890   -9.1340 N.am  178  THR178     -0.1952
     78  CA        -8.3460   59.8450   -8.9310 C.3   178  THR178      0.1897
     79  C         -9.6870   59.2140   -8.6130 C.2   178  THR178      0.2313
     80  O         -9.8130   58.0000   -8.6830 O.2   178  THR178     -0.2863
     81  CB        -7.3810   59.4520   -7.8000 C.3   178  THR178      0.1794
     82  OG1       -7.7780   60.0980   -6.5860 O.3   178  THR178     -0.2208
     83  CG2       -5.9630   59.8540   -8.1460 C.3   178  THR178      0.0378
@<TRIPOS>BOND
     1     7     6    1
     2     8     6    1
     3     6     5    1
     4     5     2    1
     5    57    59   ar
     6    57    55   ar
     7     1     2    1
     8    59    58   ar
     9     2     3    1
    10    55    54   ar
    11    58    56   ar
    12    54    56   ar
    13    54    53    1
    14     3     4    2
    15     3     9   am
    16    15     9    1
    17    15    14    1
    18    53    50    1
    19     9    10    1
    20    52    51    2
    21    41    38    1
    22    51    50    1
    23    14    13    1
    24    50    49    1
    25    25    24    2
    26    10    13    1
    27    10    11    1
    28    22    23    1
    29    75    76    1
    30    75    72    1
    31    49    44   am
    32    38    37    1
    33    38    39    1
    34    74    73    2
    35    37    32   am
    36    24    23    1
    37    24    30   am
    38    11    12    2
    39    23    26    1
    40    39    40    2
    41    39    42   am
    42    72    73    1
    43    72    71    1
    44    32    31    1
    45    32    33    2
    46    26    27    1
    47    73    77   am
    48    31    30    1
    49    31    34    1
    50    30    36    1
    51    48    42    1
    52    48    47    1
    53    42    43    1
    54    44    45    2
    55    44    43    1
    56    28    27    1
    57    70    68    1
    58    47    46    1
    59    27    29    1
    60    69    68    1
    61    77    78    1
    62    43    46    1
    63    68    67    2
    64    34    35    1
    65    78    79    1
    66    78    81    1
    67    80    79    2
    68    36    35    1
    69    16    17    1
    70    83    81    1
    71    67    66    1
    72    20    17    1
    73    20    21    1
    74    81    82    1
    75    17    18    1
    76    66    65    1
    77    64    65    1
    78    64    61    1
    79    63    62    2
    80    62    61    1
    81    18    19    2
    82    61    60    1
