@<TRIPOS>MOLECULE
tmp/1fhiA00.pdb
 212 204 0 0 0
SMALL
GASTEIGER

@<TRIPOS>ATOM
      1  N         13.5680   30.0320   22.7680 N.3     4  PHE4       -0.1241
      2  CA        13.2240   28.6150   22.6620 C.3     4  PHE4        0.1605
      3  C         12.1330   28.4890   21.6150 C.2     4  PHE4        0.2264
      4  O         10.9480   28.4230   21.9320 O.2     4  PHE4       -0.2867
      5  CB        12.7260   28.0490   23.9910 C.3     4  PHE4        0.0534
      6  CG        12.5780   26.5490   23.9820 C.ar    4  PHE4       -0.0203
      7  CD1       13.6120   25.7450   23.5100 C.ar    4  PHE4       -0.0042
      8  CD2       11.3890   25.9430   24.3920 C.ar    4  PHE4       -0.0042
      9  CE1       13.4700   24.3590   23.4370 C.ar    4  PHE4       -0.0003
     10  CE2       11.2370   24.5570   24.3220 C.ar    4  PHE4       -0.0003
     11  CZ        12.2810   23.7610   23.8400 C.ar    4  PHE4       -0.0000
     12  N          8.9310   31.1870   21.0950 N.3     7  HIS7       -0.1226
     13  CA         8.7700   31.9360   22.3310 C.3     7  HIS7        0.1752
     14  C          9.9660   31.9630   23.2540 C.2     7  HIS7        0.2596
     15  O         10.8440   31.0930   23.2100 O.2     7  HIS7       -0.2718
     16  CB         7.5560   31.4320   23.1150 C.3     7  HIS7        0.0759
     17  CG         7.0440   30.1060   22.6510 C.ar    7  HIS7        0.0818
     18  ND1        5.7010   29.8530   22.4680 N.ar    7  HIS7       -0.2268
     19  CD2        7.6920   28.9600   22.3300 C.ar    7  HIS7        0.1154
     20  CE1        5.5450   28.6080   22.0520 C.ar    7  HIS7        0.1986
     21  NE2        6.7380   28.0450   21.9590 N.ar    7  HIS7       -0.2212
     22  N          9.9910   32.9950   24.0860 N.am    8  LEU8       -0.1966
     23  CA        11.0530   33.1530   25.0590 C.3     8  LEU8        0.1728
     24  C         10.7230   32.3630   26.3330 C.2     8  LEU8        0.2616
     25  O          9.5590   32.0740   26.6440 O.2     8  LEU8       -0.2715
     26  CB        11.2510   34.6340   25.3930 C.3     8  LEU8        0.0311
     27  CG        11.3250   35.5550   24.1770 C.3     8  LEU8        0.0022
     28  CD1       10.0320   36.3530   24.0460 C.3     8  LEU8        0.0001
     29  CD2       12.5290   36.4740   24.3340 C.3     8  LEU8        0.0001
     30  N         11.7710   31.9990   27.0520 N.am    9  ILE9       -0.1977
     31  CA        11.6320   31.2510   28.2750 C.3     9  ILE9        0.1596
     32  C         12.1790   32.1820   29.3240 C.2     9  ILE9        0.2287
     33  O         13.2140   32.7940   29.0990 O.2     9  ILE9       -0.2864
     34  CB        12.4960   29.9770   28.2340 C.3     9  ILE9        0.0276
     35  CG1       12.0760   29.0790   27.0590 C.3     9  ILE9        0.0022
     36  CG2       12.3940   29.2400   29.5590 C.3     9  ILE9        0.0022
     37  CD1       10.6070   29.1440   26.6940 C.3     9  ILE9        0.0001
     38  N         16.4730   24.2530   30.9690 N.3    24  LEU24      -0.1231
     39  CA        15.2520   24.7410   31.6110 C.3    24  LEU24       0.1693
     40  C         14.2710   23.6250   31.9480 C.2    24  LEU24       0.2592
     41  O         14.5050   22.4650   31.6150 O.2    24  LEU24      -0.2718
     42  CB        14.5590   25.7610   30.7020 C.3    24  LEU24       0.0284
     43  CG        13.8260   25.2700   29.4420 C.3    24  LEU24       0.0019
     44  CD1       12.4510   25.9090   29.3470 C.3    24  LEU24       0.0001
     45  CD2       14.6460   25.6100   28.2130 C.3    24  LEU24       0.0001
     46  N         13.1660   23.9660   32.6000 N.am   25  VAL25      -0.1966
     47  CA        12.1870   22.9450   32.9440 C.3    25  VAL25       0.1727
     48  C         11.0180   22.9210   31.9660 C.2    25  VAL25       0.2616
     49  O         10.7270   23.9150   31.2940 O.2    25  VAL25      -0.2715
     50  CB        11.6150   23.1360   34.3660 C.3    25  VAL25       0.0290
     51  CG1       12.7300   23.4670   35.3410 C.3    25  VAL25       0.0023
     52  CG2       10.5560   24.2190   34.3570 C.3    25  VAL25       0.0023
     53  N         10.3550   21.7660   31.9190 N.am   26  ASN26      -0.1958
     54  CA         9.1980   21.4980   31.0700 C.3    26  ASN26       0.1819
     55  C          7.9200   21.9260   31.7940 C.2    26  ASN26       0.2621
     56  O          7.8170   21.7740   33.0090 O.2    26  ASN26      -0.2715
     57  CB         9.1120   19.9970   30.8080 C.3    26  ASN26       0.1195
     58  CG         9.2940   19.6450   29.3590 C.2    26  ASN26       0.2630
     59  OD1        9.7040   18.5290   29.0300 O.2    26  ASN26      -0.2716
     60  ND2        8.9900   20.5890   28.4760 N.am   26  ASN26      -0.0877
     61  N          6.9420   22.4500   31.0650 N.am   27  ARG27      -0.1963
     62  CA         5.6930   22.8390   31.7050 C.3    27  ARG27       0.1729
     63  C          4.8640   21.5690   31.8580 C.2    27  ARG27       0.2616
     64  O          4.0620   21.4290   32.7770 O.2    27  ARG27      -0.2715
     65  CB         4.9300   23.8530   30.8550 C.3    27  ARG27       0.0348
     66  CG         3.4260   23.8230   31.0940 C.3    27  ARG27       0.0492
     67  CD         3.0210   24.7160   32.2590 C.3    27  ARG27       0.2205
     68  NE         2.8150   26.0930   31.8170 N.pl3  27  ARG27      -0.0865
     69  CZ         2.5330   27.1150   32.6220 C.cat  27  ARG27       0.5346
     70  NH1        2.4120   26.9270   33.9270 N.pl3  27  ARG27       0.1354
     71  NH2        2.3630   28.3290   32.1180 N.pl3  27  ARG27       0.1354
     72  N          5.0770   20.6370   30.9450 N.am   28  LYS28      -0.1977
     73  CA         4.3550   19.3780   30.9700 C.3    28  LYS28       0.1596
     74  C          5.3580   18.2380   30.9220 C.2    28  LYS28       0.2287
     75  O          5.5270   17.5740   29.9090 O.2    28  LYS28      -0.2864
     76  CB         3.4140   19.2940   29.7720 C.3    28  LYS28       0.0298
     77  CG         2.1480   20.0890   29.9490 C.3    28  LYS28       0.0038
     78  CD         0.9380   19.2160   29.7240 C.3    28  LYS28       0.0206
     79  CE        -0.2800   20.0760   29.4620 C.3    28  LYS28       0.1093
     80  NZ        -1.3640   19.3130   28.7850 N.3    28  LYS28      -0.1314
     81  N          6.9520   14.8000   30.9250 N.3    30  VAL30      -0.1245
     82  CA         6.5520   13.4180   30.6900 C.3    30  VAL30       0.1561
     83  C          6.6390   12.7110   32.0560 C.2    30  VAL30       0.2260
     84  O          5.6810   12.1000   32.5340 O.2    30  VAL30      -0.2867
     85  CB         7.5390   12.7470   29.6870 C.3    30  VAL30       0.0252
     86  CG1        7.3510   11.2270   29.6620 C.3    30  VAL30       0.0019
     87  CG2        7.3430   13.3400   28.3060 C.3    30  VAL30       0.0019
     88  N         12.0990   15.7330   33.9700 N.3    34  HIS34      -0.1241
     89  CA        12.1190   15.9810   32.5470 C.3    34  HIS34       0.1621
     90  C         12.6060   17.4090   32.4460 C.2    34  HIS34       0.2264
     91  O         11.9520   18.3310   32.9360 O.2    34  HIS34      -0.2867
     92  CB        10.6950   15.8780   32.0030 C.3    34  HIS34       0.0745
     93  CG        10.6000   15.7850   30.5120 C.ar   34  HIS34       0.0817
     94  ND1        9.3910   15.7780   29.8530 N.ar   34  HIS34      -0.2268
     95  CD2       11.5520   15.6810   29.5560 C.ar   34  HIS34       0.1154
     96  CE1        9.5990   15.6740   28.5540 C.ar   34  HIS34       0.1986
     97  NE2       10.9010   15.6110   28.3500 N.ar   34  HIS34      -0.2212
     98  N         15.0050   20.1370   29.6390 N.3    36  LEU36      -0.1245
     99  CA        15.6350   20.2700   28.3240 C.3    36  LEU36       0.1561
    100  C         16.9600   21.0410   28.3730 C.2    36  LEU36       0.2260
    101  O         17.2820   21.7440   29.3480 O.2    36  LEU36      -0.2867
    102  CB        14.7100   20.9700   27.3190 C.3    36  LEU36       0.0270
    103  CG        13.1960   20.8390   27.3940 C.3    36  LEU36       0.0019
    104  CD1       12.5640   22.0810   26.8050 C.3    36  LEU36       0.0001
    105  CD2       12.7500   19.6250   26.6310 C.3    36  LEU36       0.0001
    106  N         17.4180    8.5690   30.2870 N.3    78  THR78      -0.1203
    107  CA        17.0860    8.3420   28.8930 C.3    78  THR78       0.1994
    108  C         17.2340    9.7100   28.1900 C.2    78  THR78       0.2618
    109  O         16.5480   10.6700   28.5430 O.2    78  THR78      -0.2717
    110  CB        15.6080    7.7420   28.7800 C.3    78  THR78       0.1784
    111  OG1       15.5900    6.6110   27.8920 O.3    78  THR78      -0.2211
    112  CG2       14.6060    8.7900   28.3060 C.3    78  THR78       0.0376
    113  N         18.1650    9.8100   27.2480 N.am   79  PHE79      -0.1961
    114  CA        18.3660   11.0580   26.5040 C.3    79  PHE79       0.1771
    115  C         17.8480   10.8530   25.0950 C.2    79  PHE79       0.2620
    116  O         17.9890    9.7620   24.5380 O.2    79  PHE79      -0.2715
    117  CB        19.8420   11.4150   26.3910 C.3    79  PHE79       0.0574
    118  CG        20.5170   11.6360   27.6990 C.ar   79  PHE79      -0.0200
    119  CD1       21.0790   10.5660   28.3850 C.ar   79  PHE79      -0.0042
    120  CD2       20.6570   12.9200   28.2180 C.ar   79  PHE79      -0.0042
    121  CE1       21.7780   10.7680   29.5630 C.ar   79  PHE79      -0.0003
    122  CE2       21.3550   13.1290   29.3950 C.ar   79  PHE79      -0.0003
    123  CZ        21.9180   12.0480   30.0640 C.ar   79  PHE79      -0.0000
    124  N         17.2630   11.8870   24.5010 N.am   80  SER80      -0.1950
    125  CA        16.7590   11.7380   23.1400 C.3    80  SER80       0.1924
    126  C         16.4450   13.0360   22.4010 C.2    80  SER80       0.2314
    127  O         15.5750   13.8040   22.8000 O.2    80  SER80      -0.2863
    128  CB        15.5370   10.8020   23.1430 C.3    80  SER80       0.2116
    129  OG        14.3820   11.4360   22.6270 O.3    80  SER80      -0.2180
    130  N         14.9550   14.9270   19.2350 N.3    82  GLN82      -0.1245
    131  CA        13.9930   14.7690   18.1610 C.3    82  GLN82       0.1566
    132  C         14.3660   15.7780   17.0910 C.2    82  GLN82       0.2260
    133  O         13.8850   16.9170   17.1230 O.2    82  GLN82      -0.2867
    134  CB        12.5800   15.0490   18.6640 C.3    82  GLN82       0.0367
    135  CG        11.6220   13.8700   18.5310 C.3    82  GLN82       0.0905
    136  CD        12.0880   12.6200   19.2560 C.2    82  GLN82       0.2608
    137  OE1       13.2830   12.4360   19.5050 O.2    82  GLN82      -0.2717
    138  NE2       11.1460   11.7460   19.5940 N.am   82  GLN82      -0.0878
    139  N          9.5530   14.0110   14.9980 N.3    88  GLY88      -0.1210
    140  CA         8.5350   14.3420   15.9740 C.3    88  GLY88       0.1956
    141  C          8.6710   15.7360   16.5390 C.2    88  GLY88       0.2612
    142  O          7.7970   16.1950   17.2600 O.2    88  GLY88      -0.2717
    143  N          9.7660   16.4120   16.2270 N.am   89  GLN89      -0.1965
    144  CA         9.9960   17.7590   16.7290 C.3    89  GLN89       0.1733
    145  C          8.7300   18.6100   16.6210 C.2    89  GLN89       0.2617
    146  O          7.9280   18.3800   15.7280 O.2    89  GLN89      -0.2715
    147  CB        11.1010   18.4170   15.9040 C.3    89  GLN89       0.0408
    148  CG        11.9850   19.3800   16.6820 C.3    89  GLN89       0.0908
    149  CD        12.8270   20.2500   15.7600 C.2    89  GLN89       0.2608
    150  OE1       12.8120   20.0600   14.5420 O.2    89  GLN89      -0.2717
    151  NE2       13.5650   21.2090   16.3360 N.am   89  GLN89      -0.0878
    152  N          8.5260   19.5550   17.5430 N.am   90  THR90      -0.1937
    153  CA         7.3860   20.4780   17.4530 C.3    90  THR90       0.2028
    154  C          7.8730   21.8930   17.7900 C.2    90  THR90       0.2642
    155  O          7.2840   22.8850   17.3620 O.2    90  THR90      -0.2714
    156  CB         6.1890   20.1140   18.3570 C.3    90  THR90       0.1808
    157  OG1        6.4120   20.6240   19.6820 O.3    90  THR90      -0.2208
    158  CG2        5.9640   18.6110   18.3670 C.3    90  THR90       0.0379
    159  N          8.9270   21.9990   18.5870 N.am   91  VAL91      -0.1977
    160  CA         9.5000   23.3100   18.8380 C.3    91  VAL91       0.1596
    161  C         10.6460   23.2530   17.8470 C.2    91  VAL91       0.2287
    162  O         11.3750   22.2680   17.7770 O.2    91  VAL91      -0.2864
    163  CB        10.0140   23.4740   20.2770 C.3    91  VAL91       0.0276
    164  CG1       10.6110   24.8840   20.4690 C.3    91  VAL91       0.0022
    165  CG2        8.8590   23.2620   21.2430 C.3    91  VAL91       0.0022
    166  N         17.4460   20.6460   20.6530 N.3    95  HIS95      -0.1241
    167  CA        17.3230   20.5770   22.0960 C.3    95  HIS95       0.1621
    168  C         17.1900   19.1470   22.5620 C.2    95  HIS95       0.2264
    169  O         16.4390   18.3660   21.9820 O.2    95  HIS95      -0.2867
    170  CB        16.1330   21.4170   22.5680 C.3    95  HIS95       0.0745
    171  CG        14.7970   20.8010   22.2950 C.ar   95  HIS95       0.0817
    172  ND1       13.9520   21.2650   21.3120 N.ar   95  HIS95      -0.2268
    173  CD2       14.1170   19.8290   22.9450 C.ar   95  HIS95       0.1154
    174  CE1       12.8060   20.6090   21.3730 C.ar   95  HIS95       0.1986
    175  NE2       12.8820   19.7320   22.3550 N.ar   95  HIS95      -0.2212
    176  N         16.3390   16.1080   25.3780 N.3    97  HIS97      -0.1241
    177  CA        15.4080   15.7990   26.4420 C.3    97  HIS97       0.1621
    178  C         16.0590   14.8530   27.4120 C.2    97  HIS97       0.2264
    179  O         16.3520   13.7130   27.0650 O.2    97  HIS97      -0.2867
    180  CB        14.1780   15.1280   25.9040 C.3    97  HIS97       0.0745
    181  CG        13.3690   15.9890   25.0010 C.ar   97  HIS97       0.0817
    182  ND1       12.1770   16.5480   25.3900 N.ar   97  HIS97      -0.2268
    183  CD2       13.5300   16.3150   23.6990 C.ar   97  HIS97       0.1154
    184  CE1       11.6280   17.1770   24.3690 C.ar   97  HIS97       0.1986
    185  NE2       12.4310   17.0510   23.3290 N.ar   97  HIS97      -0.2212
    186  N         15.5910   12.8890   30.8670 N.3    99  LEU99      -0.1245
    187  CA        14.5870   12.4060   31.8040 C.3    99  LEU99       0.1561
    188  C         15.2320   11.3830   32.7300 C.2    99  LEU99       0.2260
    189  O         15.8970   10.4610   32.2690 O.2    99  LEU99      -0.2867
    190  CB        13.4100   11.7410   31.0780 C.3    99  LEU99       0.0270
    191  CG        12.7630   12.3960   29.8460 C.3    99  LEU99       0.0019
    192  CD1       13.1870   11.6440   28.6030 C.3    99  LEU99       0.0001
    193  CD2       11.2330   12.3710   29.9470 C.3    99  LEU99       0.0001
    194  N         15.3120    8.2510   35.2130 N.3   101  ARG101     -0.1245
    195  CA        14.4980    7.0490   35.2480 C.3   101  ARG101      0.1563
    196  C         14.5090    6.2650   36.5440 C.2   101  ARG101      0.2260
    197  O         15.4750    6.2790   37.2990 O.2   101  ARG101     -0.2867
    198  CB        14.8970    6.1260   34.0940 C.3   101  ARG101      0.0307
    199  CG        14.7820    6.7780   32.7090 C.3   101  ARG101      0.0489
    200  CD        13.3370    6.9050   32.2940 C.3   101  ARG101      0.2205
    201  NE        12.8150    5.6120   31.8890 N.pl3 101  ARG101     -0.0865
    202  CZ        12.8910    5.1580   30.6480 C.cat 101  ARG101      0.5346
    203  NH1       13.4640    5.9020   29.7110 N.pl3 101  ARG101      0.1354
    204  NH2       12.4030    3.9650   30.3410 N.pl3 101  ARG101      0.1354
    205  N          7.2390   25.8880   38.5200 N.3   113  MET113     -0.1245
    206  CA         8.3400   25.6720   37.6070 C.3   113  MET113      0.1570
    207  C          9.5200   26.4590   38.1360 C.2   113  MET113      0.2261
    208  O         10.6630   26.0120   38.0940 O.2   113  MET113     -0.2867
    209  CB         7.9560   26.1560   36.2100 C.3   113  MET113      0.0387
    210  CG         7.0440   25.1960   35.4450 C.3   113  MET113      0.0595
    211  SD         6.7870   25.6790   33.6970 S.3   113  MET113     -0.1393
    212  CE         8.2610   26.6390   33.3960 C.3   113  MET113      0.0692
@<TRIPOS>BOND
     1   150   149    2
     2   139   140    1
     3   146   145    2
     4   149   151   am
     5   149   148    1
     6   147   148    1
     7   147   144    1
     8   140   141    1
     9   143   141   am
    10   143   144    1
    11   141   142    2
    12   145   144    1
    13   145   152   am
    14   132   133    2
    15   132   131    1
    16   155   154    2
    17   153   152    1
    18   153   154    1
    19   153   156    1
    20   162   161    2
    21   154   159   am
    22   161   160    1
    23   131   134    1
    24   131   130    1
    25   156   158    1
    26   156   157    1
    27   135   134    1
    28   135   136    1
    29   159   160    1
    30   160   163    1
    31   136   137    2
    32   136   138   am
    33   163   164    1
    34   163   165    1
    35   166   167    1
    36    12    13    1
    37   172   174   ar
    38   172   171   ar
    39   174   175   ar
    40     3     4    2
    41     3     2    1
    42    21    20   ar
    43    21    19   ar
    44   169   168    2
    45    20    18   ar
    46   167   168    1
    47   167   170    1
    48   171   170    1
    49   171   173   ar
    50    19    17   ar
    51    13    16    1
    52    13    14    1
    53   175   173   ar
    54   126   127    2
    55   126   125    1
    56    18    17   ar
    57   129   128    1
    58    17    16    1
    59     2     1    1
    60     2     5    1
    61   125   128    1
    62   125   124    1
    63    15    14    2
    64    14    22   am
    65   185   183   ar
    66   185   184   ar
    67     9     7   ar
    68     9    11   ar
    69     7     6   ar
    70   183   181   ar
    71    11    10   ar
    72     6     5    1
    73     6     8   ar
    74    28    27    1
    75    22    23    1
    76    27    29    1
    77    27    26    1
    78    10     8   ar
    79   184   182   ar
    80   124   115   am
    81   116   115    2
    82   181   182   ar
    83   181   180    1
    84    23    26    1
    85    23    24    1
    86   115   114    1
    87   176   177    1
    88   180   177    1
    89    24    25    2
    90    24    30   am
    91   117   114    1
    92   117   118    1
    93   177   178    1
    94   114   113    1
    95   105   103    1
    96    37    35    1
    97   104   103    1
    98    30    31    1
    99    35    34    1
   100   179   178    2
   101   113   108   am
   102   102   103    1
   103   102    99    1
   104   118   120   ar
   105   118   119   ar
   106   111   110    1
   107   108   109    2
   108   108   107    1
   109    45    43    1
   110   120   122   ar
   111    34    31    1
   112    34    36    1
   113    31    32    1
   114    87    85    1
   115   112   110    1
   116    99   100    1
   117    99    98    1
   118    97    96   ar
   119    97    95   ar
   120   100   101    2
   121   119   121   ar
   122    60    58   am
   123    96    94   ar
   124   192   191    1
   125   110   107    1
   126    80    79    1
   127   107   106    1
   128    59    58    2
   129    33    32    2
   130    44    43    1
   131    58    57    1
   132   122   123   ar
   133    43    42    1
   134    79    78    1
   135    95    93   ar
   136   121   123   ar
   137    86    85    1
   138    85    82    1
   139   203   202    1
   140    78    77    1
   141    76    77    1
   142    76    73    1
   143   191   193    1
   144   191   190    1
   145    94    93   ar
   146    75    74    2
   147   204   202    1
   148    93    92    1
   149   202   201    2
   150    82    81    1
   151    82    83    1
   152    42    39    1
   153    57    54    1
   154    65    66    1
   155    65    62    1
   156   186   187    1
   157    74    73    1
   158    72    73    1
   159    72    63   am
   160    38    39    1
   161    61    62    1
   162    61    55   am
   163    54    55    1
   164    54    53    1
   165   190   187    1
   166    66    67    1
   167    49    48    2
   168    39    40    1
   169    41    40    2
   170    62    63    1
   171    55    56    2
   172   187   188    1
   173    68    67    1
   174    68    69    2
   175    63    64    2
   176   201   200    1
   177    53    48   am
   178    40    46   am
   179    48    47    1
   180    92    89    1
   181    83    84    2
   182    71    69    1
   183   189   188    2
   184   200   199    1
   185    90    89    1
   186    90    91    2
   187    89    88    1
   188    46    47    1
   189    69    70    1
   190   199   198    1
   191    47    50    1
   192   212   211    1
   193   211   210    1
   194   198   195    1
   195    52    50    1
   196    50    51    1
   197   194   195    1
   198   195   196    1
   199   210   209    1
   200   209   206    1
   201   196   197    2
   202   206   207    1
   203   206   205    1
   204   208   207    2
