@<TRIPOS>MOLECULE
tmp/1fhvA00.pdb
 159 143 0 0 0
SMALL
GASTEIGER

@<TRIPOS>ATOM
      1  N         27.0830  -26.6270   50.3540 N.3    22  LEU22      -0.1245
      2  CA        27.8180  -25.4350   49.9740 C.3    22  LEU22       0.1561
      3  C         29.2270  -25.5520   50.4790 C.2    22  LEU22       0.2260
      4  O         29.3810  -25.6060   51.7060 O.2    22  LEU22      -0.2867
      5  CB        27.2180  -24.2840   50.7580 C.3    22  LEU22       0.0270
      6  CG        26.1650  -23.5570   49.9750 C.3    22  LEU22       0.0019
      7  CD1       25.7400  -22.3580   50.7970 C.3    22  LEU22       0.0001
      8  CD2       26.8190  -23.0630   48.7000 C.3    22  LEU22       0.0001
      9  N         25.1330  -14.9300   52.6880 N.3    50  LEU50      -0.1245
     10  CA        25.2850  -16.3780   52.5430 C.3    50  LEU50       0.1561
     11  C         26.3830  -16.9410   53.4680 C.2    50  LEU50       0.2260
     12  O         27.5600  -16.6150   53.3570 O.2    50  LEU50      -0.2867
     13  CB        25.6210  -16.6510   51.0720 C.3    50  LEU50       0.0270
     14  CG        25.7480  -18.1280   50.6790 C.3    50  LEU50       0.0019
     15  CD1       24.3800  -18.8320   50.7950 C.3    50  LEU50       0.0001
     16  CD2       26.2870  -18.2050   49.2340 C.3    50  LEU50       0.0001
     17  N         30.3110  -17.4750   52.9450 N.3    53  PHE53      -0.1241
     18  CA        30.7470  -16.6470   51.8460 C.3    53  PHE53       0.1605
     19  C         30.7740  -15.2220   52.2920 C.2    53  PHE53       0.2264
     20  O         31.7970  -14.5410   52.2360 O.2    53  PHE53      -0.2867
     21  CB        29.8850  -16.7990   50.6080 C.3    53  PHE53       0.0534
     22  CG        30.0750  -18.1730   50.0050 C.ar   53  PHE53      -0.0203
     23  CD1       29.5440  -19.2980   50.6330 C.ar   53  PHE53      -0.0042
     24  CD2       30.8670  -18.3420   48.8740 C.ar   53  PHE53      -0.0042
     25  CE1       29.7280  -20.5690   50.0860 C.ar   53  PHE53      -0.0003
     26  CE2       31.0720  -19.5980   48.3080 C.ar   53  PHE53      -0.0003
     27  CZ        30.4520  -20.6980   48.9010 C.ar   53  PHE53      -0.0000
     28  N         21.8570  -20.6710   33.0240 N.3   109  ALA109     -0.1245
     29  CA        22.5770  -21.7950   32.4290 C.3   109  ALA109      0.1562
     30  C         22.2870  -22.9560   33.3620 C.2   109  ALA109      0.2260
     31  O         22.3560  -22.7840   34.5750 O.2   109  ALA109     -0.2867
     32  CB        24.0740  -21.5140   32.3090 C.3   109  ALA109      0.0290
     33  N         22.4940  -26.0480   35.6770 N.3   111  LEU111     -0.1245
     34  CA        23.5390  -26.7960   36.3960 C.3   111  LEU111      0.1561
     35  C         23.3030  -28.2910   36.1310 C.2   111  LEU111      0.2260
     36  O         22.2470  -28.8180   36.4150 O.2   111  LEU111     -0.2867
     37  CB        23.4970  -26.4850   37.8980 C.3   111  LEU111      0.0270
     38  CG        24.5170  -27.2280   38.7960 C.3   111  LEU111      0.0019
     39  CD1       25.6280  -27.9300   38.0100 C.3   111  LEU111      0.0001
     40  CD2       25.1140  -26.2430   39.7970 C.3   111  LEU111      0.0001
     41  N         26.2880  -25.6590   32.7040 N.3   133  LYS133     -0.1245
     42  CA        27.2920  -25.6040   33.7450 C.3   133  LYS133      0.1561
     43  C         27.5380  -26.9660   34.3960 C.2   133  LYS133      0.2260
     44  O         26.6050  -27.6500   34.7910 O.2   133  LYS133     -0.2867
     45  CB        26.9210  -24.5810   34.8100 C.3   133  LYS133      0.0271
     46  CG        27.8570  -24.6210   36.0120 C.3   133  LYS133      0.0035
     47  CD        27.5260  -23.5890   37.0850 C.3   133  LYS133      0.0206
     48  CE        28.7640  -22.9080   37.6710 C.3   133  LYS133      0.1093
     49  NZ        29.6010  -22.2390   36.6580 N.3   133  LYS133     -0.1314
     50  N         29.9710  -28.9570   37.3990 N.3   135  LYS135     -0.1245
     51  CA        30.9540  -28.8120   38.4680 C.3   135  LYS135      0.1561
     52  C         32.0760  -29.8020   38.2520 C.2   135  LYS135      0.2260
     53  O         31.7980  -30.9230   37.8610 O.2   135  LYS135     -0.2867
     54  CB        30.3530  -29.0740   39.8200 C.3   135  LYS135      0.0271
     55  CG        29.5480  -27.8880   40.3040 C.3   135  LYS135      0.0035
     56  CD        28.6790  -28.2050   41.5000 C.3   135  LYS135      0.0206
     57  CE        27.7600  -27.0520   41.8720 C.3   135  LYS135      0.1093
     58  NZ        27.1370  -27.2110   43.2020 N.3   135  LYS135     -0.1314
     59  N         33.2680  -25.3770   36.7370 N.3   163  ASP163     -0.1239
     60  CA        33.6680  -24.7570   37.9800 C.3   163  ASP163      0.1674
     61  C         34.4040  -25.6950   38.8820 C.2   163  ASP163      0.2266
     62  O         33.7910  -26.6480   39.3760 O.2   163  ASP163     -0.2867
     63  CB        32.4810  -24.1080   38.7240 C.3   163  ASP163      0.1410
     64  CG        32.9140  -23.1660   39.8610 C.2   163  ASP163      0.3668
     65  OD1       34.0450  -23.1230   40.3520 O.co2 163  ASP163     -0.2456
     66  OD2       31.9070  -22.4700   40.3390 O.co2 163  ASP163     -0.2456
     67  N         36.1080  -24.6060   41.7360 N.3   165  ASN165     -0.1240
     68  CA        36.1600  -24.1560   43.0980 C.3   165  ASN165      0.1653
     69  C         37.5510  -24.3240   43.6910 C.2   165  ASN165      0.2266
     70  O         37.6790  -24.7910   44.8430 O.2   165  ASN165     -0.2867
     71  CB        35.1160  -24.8950   43.9780 C.3   165  ASN165      0.1155
     72  CG        33.7080  -24.5120   43.5050 C.2   165  ASN165      0.2627
     73  OD1       33.3110  -23.3480   43.5930 O.2   165  ASN165     -0.2716
     74  ND2       32.9760  -25.4360   42.9080 N.am  165  ASN165     -0.0877
     75  N         35.9130  -21.9700   35.8440 N.3   192  GLU192     -0.1245
     76  CA        36.1300  -21.1690   37.0260 C.3   192  GLU192      0.1567
     77  C         37.1550  -21.7220   37.9700 C.2   192  GLU192      0.2260
     78  O         37.0360  -22.8330   38.4530 O.2   192  GLU192     -0.2867
     79  CB        34.8450  -20.9220   37.8980 C.3   192  GLU192      0.0388
     80  CG        33.6650  -20.4560   37.0370 C.3   192  GLU192      0.1160
     81  CD        32.4010  -20.2430   37.8210 C.2   192  GLU192      0.3649
     82  OE1       31.3020  -20.3090   37.3150 O.co2 192  GLU192     -0.2457
     83  OE2       32.5870  -19.9610   39.0830 O.co2 192  GLU192     -0.2457
     84  N         36.0070  -16.0380   40.1580 N.3   215  ASP215     -0.1239
     85  CA        34.7640  -16.0140   40.9410 C.3   215  ASP215      0.1674
     86  C         35.0820  -15.5520   42.3600 C.2   215  ASP215      0.2266
     87  O         35.1190  -14.3520   42.6460 O.2   215  ASP215     -0.2867
     88  CB        34.0330  -17.4100   40.8550 C.3   215  ASP215      0.1410
     89  CG        32.6840  -17.4740   41.5510 C.2   215  ASP215      0.3668
     90  OD1       32.0490  -18.4650   41.7210 O.co2 215  ASP215     -0.2456
     91  OD2       32.3110  -16.3670   42.0830 O.co2 215  ASP215     -0.2456
     92  N         32.9340  -13.8210   37.3200 N.3   235  VAL235     -0.1245
     93  CA        31.6290  -14.2150   37.9170 C.3   235  VAL235      0.1561
     94  C         31.3390  -13.2590   39.0570 C.2   235  VAL235      0.2260
     95  O         32.0130  -13.2280   40.1110 O.2   235  VAL235     -0.2867
     96  CB        31.6880  -15.6510   38.4480 C.3   235  VAL235      0.0252
     97  CG1       30.3220  -16.0500   39.0260 C.3   235  VAL235      0.0019
     98  CG2       31.9960  -16.5510   37.2450 C.3   235  VAL235      0.0019
     99  N         28.8180  -12.0300   41.8100 N.3   237  LYS237     -0.1245
    100  CA        27.7210  -12.3830   42.6930 C.3   237  LYS237      0.1561
    101  C         27.2990  -11.1420   43.5050 C.2   237  LYS237      0.2260
    102  O         27.8470  -10.8440   44.5740 O.2   237  LYS237     -0.2867
    103  CB        28.1770  -13.4980   43.6290 C.3   237  LYS237      0.0271
    104  CG        28.3980  -14.8300   42.8780 C.3   237  LYS237      0.0035
    105  CD        28.8220  -15.9010   43.8890 C.3   237  LYS237      0.0206
    106  CE        28.7030  -17.3240   43.3710 C.3   237  LYS237      0.1093
    107  NZ        29.5130  -17.4900   42.1690 N.3   237  LYS237     -0.1314
    108  N         29.5400  -12.5390   34.1240 N.3   262  VAL262     -0.1245
    109  CA        28.3690  -13.3700   34.3350 C.3   262  VAL262      0.1561
    110  C         27.7720  -12.9690   35.6720 C.2   262  VAL262      0.2260
    111  O         28.4930  -12.8710   36.6700 O.2   262  VAL262     -0.2867
    112  CB        28.8200  -14.8560   34.4590 C.3   262  VAL262      0.0252
    113  CG1       27.6380  -15.7890   34.7650 C.3   262  VAL262      0.0019
    114  CG2       29.5310  -15.3020   33.2100 C.3   262  VAL262      0.0019
    115  N         25.7380  -13.8390   38.8050 N.3   264  SER264     -0.1202
    116  CA        25.6110  -15.1290   39.4260 C.3   264  SER264      0.2020
    117  C         24.9190  -15.1260   40.7940 C.2   264  SER264      0.2619
    118  O         25.0080  -14.1880   41.6060 O.2   264  SER264     -0.2717
    119  CB        27.0080  -15.7680   39.4160 C.3   264  SER264      0.2103
    120  OG        27.1560  -16.7070   40.4590 O.3   264  SER264     -0.2182
    121  N         24.2090  -16.2240   41.0540 N.am  265  SER265     -0.1937
    122  CA        23.4380  -16.4070   42.2520 C.3   265  SER265      0.2055
    123  C         24.2180  -16.6500   43.4930 C.2   265  SER265      0.2644
    124  O         25.2380  -17.3270   43.4800 O.2   265  SER265     -0.2714
    125  CB        22.4820  -17.5630   42.0360 C.3   265  SER265      0.2130
    126  OG        22.0180  -17.9370   43.3350 O.3   265  SER265     -0.2179
    127  N         23.7190  -16.1170   44.6140 N.am  266  SER266     -0.1935
    128  CA        24.2620  -16.4190   45.9480 C.3   266  SER266      0.2055
    129  C         23.1460  -17.1630   46.7200 C.2   266  SER266      0.2642
    130  O         22.9750  -16.9770   47.9460 O.2   266  SER266     -0.2714
    131  CB        24.7240  -15.1800   46.7640 C.3   266  SER266      0.2130
    132  OG        25.6480  -14.4680   45.9700 O.3   266  SER266     -0.2179
    133  N         22.3400  -17.9270   45.9600 N.am  267  ILE267     -0.1977
    134  CA        21.2190  -18.6580   46.5300 C.3   267  ILE267      0.1596
    135  C         20.1710  -17.7320   47.1270 C.2   267  ILE267      0.2287
    136  O         19.6870  -17.9620   48.2140 O.2   267  ILE267     -0.2864
    137  CB        21.6200  -19.7380   47.5540 C.3   267  ILE267      0.0276
    138  CG1       22.9010  -20.4640   47.1140 C.3   267  ILE267      0.0022
    139  CG2       20.4630  -20.7340   47.7600 C.3   267  ILE267      0.0022
    140  CD1       23.3420  -21.5470   48.0890 C.3   267  ILE267      0.0001
    141  N         24.1710  -17.0220   35.8090 N.3   290  GLY290     -0.1225
    142  CA        24.3310  -18.2150   36.6290 C.3   290  GLY290      0.1811
    143  C         23.3260  -18.2310   37.7260 C.2   290  GLY290      0.2280
    144  O         23.6750  -18.1100   38.9020 O.2   290  GLY290     -0.2866
    145  N         20.8230  -20.7050   38.2900 N.3   292  ASP292     -0.1225
    146  CA        20.1010  -21.9580   38.4400 C.3   292  ASP292      0.1805
    147  C         20.1850  -22.5100   39.8220 C.2   292  ASP292      0.2598
    148  O         20.7580  -23.5750   40.0550 O.2   292  ASP292     -0.2718
    149  CB        20.5160  -22.9730   37.3430 C.3   292  ASP292      0.1424
    150  CG        19.6500  -24.1980   37.3890 C.2   292  ASP292      0.3668
    151  OD1       18.5710  -24.2280   37.9380 O.co2 292  ASP292     -0.2456
    152  OD2       20.1790  -25.2190   36.8100 O.co2 292  ASP292     -0.2456
    153  N         19.5960  -21.7870   40.7570 N.am  293  THR293     -0.1953
    154  CA        19.5980  -22.1890   42.1260 C.3   293  THR293      0.1897
    155  C         18.2120  -22.2210   42.7840 C.2   293  THR293      0.2313
    156  O         18.1090  -22.5110   43.9510 O.2   293  THR293     -0.2863
    157  CB        20.5230  -21.3120   43.0040 C.3   293  THR293      0.1794
    158  OG1       20.0500  -19.9700   42.9320 O.3   293  THR293     -0.2208
    159  CG2       21.9970  -21.3930   42.5300 C.3   293  THR293      0.0378
@<TRIPOS>BOND
     1    32    29    1
     2    29    28    1
     3    29    30    1
     4    41    42    1
     5   114   112    1
     6    30    31    2
     7    42    43    1
     8    42    45    1
     9   108   109    1
    10   109   112    1
    11   109   110    1
    12    43    44    2
    13   112   113    1
    14    45    46    1
    15   110   111    2
    16    33    34    1
    17   141   142    1
    18    75    76    1
    19    46    47    1
    20    35    34    1
    21    35    36    2
    22    34    37    1
    23   142   143    1
    24    49    48    1
    25    59    60    1
    26   152   150   ar
    27    76    79    1
    28    76    77    1
    29    80    81    1
    30    80    79    1
    31    47    48    1
    32    98    96    1
    33    82    81   ar
    34    92    93    1
    35   149   150    1
    36   149   146    1
    37   150   151   ar
    38    50    51    1
    39   143   144    2
    40    81    83   ar
    41    53    52    2
    42    37    38    1
    43    93    96    1
    44    93    94    1
    45    77    78    2
    46    60    63    1
    47    60    61    1
    48    39    38    1
    49    52    51    1
    50   145   146    1
    51   146   147    1
    52    96    97    1
    53    51    54    1
    54    63    64    1
    55    38    40    1
    56   115   116    1
    57    61    62    2
    58    94    95    2
    59   119   116    1
    60   119   120    1
    61   116   117    1
    62    54    55    1
    63   147   148    2
    64   147   153   am
    65    64    66   ar
    66    64    65   ar
    67    84    85    1
    68    55    56    1
    69   153   154    1
    70   117   121   am
    71   117   118    2
    72    88    85    1
    73    88    89    1
    74    85    86    1
    75   121   122    1
    76    56    57    1
    77    89    90   ar
    78    89    91   ar
    79    67    68    1
    80    99   100    1
    81    57    58    1
    82   125   122    1
    83   125   126    1
    84   154   155    1
    85   154   157    1
    86   107   106    1
    87   122   123    1
    88    86    87    2
    89   159   157    1
    90   100   101    1
    91   100   103    1
    92   155   156    2
    93   104   103    1
    94   104   105    1
    95    74    72   am
    96   158   157    1
    97    68    69    1
    98    68    71    1
    99   106   105    1
   100   124   123    2
   101   123   127   am
   102   101   102    2
   103    72    73    2
   104    72    71    1
   105    69    70    2
   106   127   128    1
   107   128   129    1
   108   128   131    1
   109   133   134    1
   110   133   129   am
   111   132   131    1
   112   134   135    1
   113   134   137    1
   114   129   130    2
   115   138   137    1
   116   138   140    1
   117   135   136    2
   118   137   139    1
   119    26    24   ar
   120    26    27   ar
   121     8     6    1
   122    24    22   ar
   123    27    25   ar
   124    16    14    1
   125     2     1    1
   126     2     3    1
   127     2     5    1
   128     6     5    1
   129     6     7    1
   130    22    21    1
   131    22    23   ar
   132    25    23   ar
   133     3     4    2
   134    21    18    1
   135    14    15    1
   136    14    13    1
   137    13    10    1
   138    18    19    1
   139    18    17    1
   140    20    19    2
   141    10     9    1
   142    10    11    1
   143    12    11    2
