@<TRIPOS>MOLECULE
tmp/1fhwA00.pdb
 144 138 0 0 0
SMALL
GASTEIGER

@<TRIPOS>ATOM
      1  N         -1.3260   26.2040    1.4600 N.3     9  LYS9       -0.1245
      2  CA        -2.5670   25.4670    1.7010 C.3     9  LYS9        0.1561
      3  C         -3.7220   26.3950    2.0740 C.2     9  LYS9        0.2260
      4  O         -3.5870   27.2560    2.9520 O.2     9  LYS9       -0.2867
      5  CB        -2.3550   24.4400    2.8210 C.3     9  LYS9        0.0271
      6  CG        -3.6230   23.7230    3.2680 C.3     9  LYS9        0.0035
      7  CD        -3.3030   22.5340    4.1660 C.3     9  LYS9        0.0206
      8  CE        -2.6310   22.9530    5.4660 C.3     9  LYS9        0.1093
      9  NZ        -3.5610   23.7390    6.3350 N.3     9  LYS9       -0.1314
     10  N         -7.1900   27.3700    3.7950 N.3    11  GLY11      -0.1210
     11  CA        -7.9150   26.9430    4.9790 C.3    11  GLY11       0.1956
     12  C         -9.2600   26.3020    4.6920 C.2    11  GLY11       0.2612
     13  O         -9.8810   26.5750    3.6630 O.2    11  GLY11      -0.2717
     14  N         -9.7100   25.4450    5.6070 N.am   12  GLY12      -0.1942
     15  CA       -10.9880   24.7730    5.4400 C.3    12  GLY12       0.2014
     16  C        -12.1480   25.7310    5.6210 C.2    12  GLY12       0.2639
     17  O        -12.7030   26.2400    4.6470 O.2    12  GLY12      -0.2714
     18  N        -12.5220   25.9780    6.8720 N.am   13  ARG13      -0.1963
     19  CA       -13.6150   26.8980    7.1610 C.3    13  ARG13       0.1729
     20  C        -13.1950   28.2750    6.6670 C.2    13  ARG13       0.2616
     21  O        -12.4710   28.9830    7.3610 O.2    13  ARG13      -0.2715
     22  CB       -13.8750   26.9800    8.6630 C.3    13  ARG13       0.0348
     23  CG       -14.0390   25.6500    9.3710 C.3    13  ARG13       0.0492
     24  CD       -14.2040   25.9080   10.8610 C.3    13  ARG13       0.2205
     25  NE       -14.2310   24.6870   11.6590 N.pl3  13  ARG13      -0.0865
     26  CZ       -14.4460   24.6780   12.9710 C.cat  13  ARG13       0.5346
     27  NH1      -14.6570   25.8260   13.6060 N.pl3  13  ARG13       0.1354
     28  NH2      -14.4350   23.5360   13.6500 N.pl3  13  ARG13       0.1354
     29  N        -13.6460   28.6430    5.4720 N.am   14  VAL14      -0.1963
     30  CA       -13.3250   29.9340    4.8660 C.3    14  VAL14       0.1727
     31  C        -12.1010   29.8520    3.9590 C.2    14  VAL14       0.2616
     32  O        -11.8140   28.8000    3.3850 O.2    14  VAL14      -0.2715
     33  CB       -13.1120   31.0050    5.9440 C.3    14  VAL14       0.0290
     34  CG1      -13.2130   32.3640    5.2480 C.3    14  VAL14       0.0023
     35  CG2      -14.2340   30.8650    6.9730 C.3    14  VAL14       0.0023
     36  N        -11.3780   30.9630    3.8360 N.am   15  LYS15      -0.1963
     37  CA       -10.2070   31.0090    2.9660 C.3    15  LYS15       0.1728
     38  C         -8.8610   31.1770    3.6700 C.2    15  LYS15       0.2616
     39  O         -8.4910   30.3740    4.5300 O.2    15  LYS15      -0.2715
     40  CB       -10.3880   32.1120    1.9260 C.3    15  LYS15       0.0311
     41  CG       -11.5620   31.9210    0.9640 C.3    15  LYS15       0.0038
     42  CD       -11.5420   30.5480    0.2380 C.3    15  LYS15       0.0206
     43  CE       -12.9490   30.0970   -0.2470 C.3    15  LYS15       0.1093
     44  NZ       -13.8680   29.6510    0.8720 N.3    15  LYS15      -0.1314
     45  N         -8.1350   32.2220    3.2730 N.am   16  THR16      -0.1951
     46  CA        -6.8110   32.5380    3.8030 C.3    16  THR16       0.1897
     47  C         -5.8310   31.3870    3.5740 C.2    16  THR16       0.2313
     48  O         -6.0740   30.2510    3.9840 O.2    16  THR16      -0.2863
     49  CB        -6.8620   32.8880    5.3120 C.3    16  THR16       0.1794
     50  OG1       -7.2900   31.7490    6.0680 O.3    16  THR16      -0.2208
     51  CG2       -7.8270   34.0400    5.5530 C.3    16  THR16       0.0378
     52  N         -1.9850   29.5060    3.8370 N.3    18  LYS18      -0.1245
     53  CA        -0.8960   29.3540    4.7930 C.3    18  LYS18       0.1561
     54  C          0.2610   28.5970    4.1300 C.2    18  LYS18       0.2260
     55  O          0.0320   27.6740    3.3460 O.2    18  LYS18      -0.2867
     56  CB        -1.3650   28.5690    6.0190 C.3    18  LYS18       0.0271
     57  CG        -2.5020   29.2000    6.8140 C.3    18  LYS18       0.0035
     58  CD        -2.1170   30.5620    7.3780 C.3    18  LYS18       0.0206
     59  CE        -3.1570   31.0400    8.3720 C.3    18  LYS18       0.1093
     60  NZ        -4.5280   30.9120    7.8100 N.3    18  LYS18      -0.1314
     61  N          3.2020   25.9830    4.3960 N.3    20  ARG20      -0.1245
     62  CA         3.5510   24.8530    5.2590 C.3    20  ARG20       0.1563
     63  C          4.5900   23.9640    4.5770 C.2    20  ARG20       0.2260
     64  O          4.6160   23.8700    3.3480 O.2    20  ARG20      -0.2867
     65  CB         2.3060   23.9910    5.5500 C.3    20  ARG20       0.0307
     66  CG         1.1270   24.6950    6.2280 C.3    20  ARG20       0.0489
     67  CD         1.4940   25.2350    7.6000 C.3    20  ARG20       0.2205
     68  NE         0.3630   25.8490    8.3060 N.pl3  20  ARG20      -0.0865
     69  CZ         0.3960   27.0790    8.8140 C.cat  20  ARG20       0.5346
     70  NH1        1.4900   27.8160    8.6750 N.pl3  20  ARG20       0.1354
     71  NH2       -0.6350   27.5650    9.4940 N.pl3  20  ARG20       0.1354
     72  N          2.2440   17.8200    7.4340 N.3    31  TYR31      -0.1241
     73  CA         2.6020   19.2120    7.2450 C.3    31  TYR31       0.1605
     74  C          2.9220   19.9150    8.5620 C.2    31  TYR31       0.2264
     75  O          2.3710   19.5850    9.6270 O.2    31  TYR31      -0.2867
     76  CB         1.5180   19.9560    6.4430 C.3    31  TYR31       0.0534
     77  CG         0.1180   19.9500    7.0230 C.ar   31  TYR31      -0.0201
     78  CD1       -0.3170   20.9740    7.8700 C.ar   31  TYR31      -0.0009
     79  CD2       -0.7890   18.9410    6.6910 C.ar   31  TYR31      -0.0009
     80  CE1       -1.6230   20.9970    8.3680 C.ar   31  TYR31       0.0417
     81  CE2       -2.0960   18.9510    7.1840 C.ar   31  TYR31       0.0417
     82  CZ        -2.5060   19.9810    8.0220 C.ar   31  TYR31       0.1957
     83  OH        -3.7940   19.9890    8.5170 O.3    31  TYR31      -0.2866
     84  N          1.5600   19.5720   12.3770 N.3    41  ARG41      -0.1245
     85  CA         0.4100   20.4450   12.4840 C.3    41  ARG41       0.1563
     86  C         -0.7730   19.6200   11.9710 C.2    41  ARG41       0.2260
     87  O         -1.9150   19.8120   12.3960 O.2    41  ARG41      -0.2867
     88  CB         0.6220   21.7090   11.6400 C.3    41  ARG41       0.0307
     89  CG        -0.5490   22.6950   11.6360 C.3    41  ARG41       0.0489
     90  CD        -1.0060   23.0930   13.0500 C.3    41  ARG41       0.2205
     91  NE         0.0020   23.8190   13.8230 N.pl3  41  ARG41      -0.0865
     92  CZ         0.3380   25.0950   13.6340 C.cat  41  ARG41       0.5346
     93  NH1       -0.2470   25.8150   12.6870 N.pl3  41  ARG41       0.1354
     94  NH2        1.2600   25.6600   14.4040 N.pl3  41  ARG41       0.1354
     95  N         -5.3500   16.8790   12.9590 N.3    79  LYS79      -0.1231
     96  CA        -4.7530   18.2020   13.0360 C.3    79  LYS79       0.1693
     97  C         -4.6710   18.6230   14.5020 C.2    79  LYS79       0.2592
     98  O         -5.4060   18.1090   15.3520 O.2    79  LYS79      -0.2718
     99  CB        -5.5580   19.2250   12.2220 C.3    79  LYS79       0.0285
    100  CG        -6.6440   19.9590   12.9830 C.3    79  LYS79       0.0035
    101  CD        -7.0380   21.2330   12.2420 C.3    79  LYS79       0.0206
    102  CE        -8.0770   22.0320   13.0110 C.3    79  LYS79       0.1093
    103  NZ        -9.3390   21.2640   13.2140 N.3    79  LYS79      -0.1314
    104  N         -3.7620   19.5430   14.8030 N.am   80  THR80      -0.1953
    105  CA        -3.6090   20.0080   16.1760 C.3    80  THR80       0.1897
    106  C         -4.0700   21.4560   16.3020 C.2    80  THR80       0.2313
    107  O         -3.7400   22.2980   15.4620 O.2    80  THR80      -0.2863
    108  CB        -2.1410   19.8760   16.6360 C.3    80  THR80       0.1794
    109  OG1       -1.2980   20.6800   15.8010 O.3    80  THR80      -0.2208
    110  CG2       -1.6880   18.4220   16.5360 C.3    80  THR80       0.0378
    111  N         -9.8820   16.8460   11.3400 N.3    89  GLY89      -0.1210
    112  CA        -9.8900   17.9430   10.3920 C.3    89  GLY89       0.1956
    113  C        -11.3030   18.2130    9.9150 C.2    89  GLY89       0.2612
    114  O        -12.1930   17.3860   10.1280 O.2    89  GLY89      -0.2717
    115  N        -11.5200   19.3610    9.2780 N.am   90  ASN90      -0.1960
    116  CA       -12.8530   19.6900    8.7860 C.3    90  ASN90       0.1819
    117  C        -12.8580   20.0950    7.3110 C.2    90  ASN90       0.2621
    118  O        -13.6370   20.9530    6.8920 O.2    90  ASN90      -0.2715
    119  CB       -13.4750   20.8010    9.6400 C.3    90  ASN90       0.1195
    120  CG       -14.9730   20.9280    9.4230 C.2    90  ASN90       0.2630
    121  OD1      -15.7000   19.9320    9.4490 O.2    90  ASN90      -0.2716
    122  ND2      -15.4440   22.1530    9.2160 N.am   90  ASN90      -0.0877
    123  N        -11.9920   19.4620    6.5250 N.am   91  HIS91      -0.1973
    124  CA       -11.9030   19.7410    5.0950 C.3    91  HIS91       0.1656
    125  C        -12.6900   18.7520    4.2470 C.2    91  HIS91       0.2291
    126  O        -12.6200   17.5470    4.4720 O.2    91  HIS91      -0.2864
    127  CB       -10.4570   19.6450    4.5940 C.3    91  HIS91       0.0771
    128  CG        -9.6320   20.8680    4.8300 C.ar   91  HIS91       0.0820
    129  ND1       -9.0410   21.1480    6.0420 N.ar   91  HIS91      -0.2267
    130  CD2       -9.2600   21.8630    3.9910 C.ar   91  HIS91       0.1154
    131  CE1       -8.3350   22.2590    5.9370 C.ar   91  HIS91       0.1986
    132  NE2       -8.4510   22.7130    4.7020 N.ar   91  HIS91      -0.2212
    133  N         -8.9130   19.8200   -0.1180 N.3    94  TYR94      -0.1241
    134  CA        -7.6740   20.5220    0.2230 C.3    94  TYR94       0.1605
    135  C         -7.0900   21.1570   -1.0450 C.2    94  TYR94       0.2264
    136  O         -6.7570   20.4450   -1.9970 O.2    94  TYR94      -0.2867
    137  CB        -6.6110   19.5670    0.8070 C.3    94  TYR94       0.0534
    138  CG        -6.8520   19.0800    2.2260 C.ar   94  TYR94      -0.0201
    139  CD1       -7.5950   17.9250    2.4790 C.ar   94  TYR94      -0.0009
    140  CD2       -6.3220   19.7720    3.3170 C.ar   94  TYR94      -0.0009
    141  CE1       -7.8020   17.4640    3.7870 C.ar   94  TYR94       0.0417
    142  CE2       -6.5270   19.3280    4.6280 C.ar   94  TYR94       0.0417
    143  CZ        -7.2660   18.1720    4.8530 C.ar   94  TYR94       0.1957
    144  OH        -7.4640   17.7390    6.1460 O.3    94  TYR94      -0.2866
@<TRIPOS>BOND
     1   136   135    2
     2   135   134    1
     3    43    42    1
     4    43    44    1
     5   133   134    1
     6   134   137    1
     7    42    41    1
     8   137   138    1
     9    41    40    1
    10     1     2    1
    11     2     3    1
    12     2     5    1
    13    40    37    1
    14     3     4    2
    15   138   139   ar
    16   138   140   ar
    17   139   141   ar
    18     5     6    1
    19    37    38    1
    20    37    36    1
    21     6     7    1
    22    45    38   am
    23    45    46    1
    24   140   142   ar
    25    55    54    2
    26    64    63    2
    27    32    31    2
    28    47    46    1
    29    47    48    2
    30    13    12    2
    31    38    39    2
    32   141   143   ar
    33    10    11    1
    34    46    49    1
    35    36    31   am
    36    52    53    1
    37    31    30    1
    38   130   132   ar
    39   130   128   ar
    40    54    53    1
    41     7     8    1
    42   125   126    2
    43   125   124    1
    44    61    62    1
    45    63    62    1
    46   127   128    1
    47   127   124    1
    48   142   143   ar
    49    17    16    2
    50    12    11    1
    51    12    14   am
    52   132   131   ar
    53    53    56    1
    54   128   129   ar
    55   143   144    1
    56    30    29    1
    57    30    33    1
    58   124   123    1
    59    34    33    1
    60    62    65    1
    61    49    51    1
    62    49    50    1
    63    15    14    1
    64    15    16    1
    65     8     9    1
    66    29    20   am
    67    65    66    1
    68    16    18   am
    69   131   129   ar
    70    33    35    1
    71    56    57    1
    72    66    67    1
    73    76    77    1
    74    76    73    1
    75   123   117   am
    76    20    19    1
    77    20    21    2
    78    79    77   ar
    79    79    81   ar
    80    57    58    1
    81    18    19    1
    82   118   117    2
    83    77    78   ar
    84    19    22    1
    85    81    82   ar
    86    73    72    1
    87    73    74    1
    88   117   116    1
    89    58    59    1
    90    67    68    1
    91    60    59    1
    92    78    80   ar
    93    82    80   ar
    94    82    83    1
    95    68    69    2
    96    74    75    2
    97    22    23    1
    98    70    69    1
    99   116   115    1
   100   116   119    1
   101    69    71    1
   102   122   120   am
   103   115   113   am
   104    23    24    1
   105   120   121    2
   106   120   119    1
   107   113   114    2
   108   113   112    1
   109   112   111    1
   110    24    25    1
   111    89    88    1
   112    89    90    1
   113    88    85    1
   114    25    26    2
   115    86    87    2
   116    86    85    1
   117    99   100    1
   118    99    96    1
   119   101   100    1
   120   101   102    1
   121    84    85    1
   122    93    92    1
   123    95    96    1
   124    26    27    1
   125    26    28    1
   126   102   103    1
   127    96    97    1
   128    90    91    1
   129    92    91    2
   130    92    94    1
   131    97   104   am
   132    97    98    2
   133   104   105    1
   134   107   106    2
   135   109   108    1
   136   105   106    1
   137   105   108    1
   138   110   108    1
