@<TRIPOS>MOLECULE
tmp/1fi1A04.pdb
 233 230 0 0 0
SMALL
GASTEIGER

@<TRIPOS>ATOM
      1  N         86.0160   83.3930   46.2920 N.3    63  ARG63      -0.1245
      2  CA        85.9830   82.0240   45.7900 C.3    63  ARG63       0.1563
      3  C         86.5730   81.8900   44.3810 C.2    63  ARG63       0.2260
      4  O         86.6010   80.7960   43.7890 O.2    63  ARG63      -0.2867
      5  CB        84.5370   81.5210   45.8210 C.3    63  ARG63       0.0307
      6  CG        84.3840   80.0130   45.7730 C.3    63  ARG63       0.0489
      7  CD        85.1130   79.3160   46.8930 C.3    63  ARG63       0.2205
      8  NE        84.9090   77.8750   46.8450 N.pl3  63  ARG63      -0.0865
      9  CZ        84.3160   77.1780   47.8120 C.cat  63  ARG63       0.5346
     10  NH1       83.8710   77.7940   48.9050 N.pl3  63  ARG63       0.1354
     11  NH2       84.1530   75.8630   47.6850 N.pl3  63  ARG63       0.1354
     12  N         77.8490   80.5000   44.3090 N.3    69  TYR69      -0.1241
     13  CA        77.2260   81.3160   45.3220 C.3    69  TYR69       0.1605
     14  C         77.5810   82.7900   45.2190 C.2    69  TYR69       0.2264
     15  O         78.4480   83.1980   44.4640 O.2    69  TYR69      -0.2867
     16  CB        77.5810   80.7740   46.7040 C.3    69  TYR69       0.0534
     17  CG        76.9310   79.4580   46.9430 C.ar   69  TYR69      -0.0201
     18  CD1       75.5430   79.3560   46.9250 C.ar   69  TYR69      -0.0009
     19  CD2       77.6810   78.3030   47.1170 C.ar   69  TYR69      -0.0009
     20  CE1       74.9140   78.1570   47.0550 C.ar   69  TYR69       0.0417
     21  CE2       77.0610   77.0740   47.2550 C.ar   69  TYR69       0.0417
     22  CZ        75.6710   77.0070   47.2170 C.ar   69  TYR69       0.1957
     23  OH        75.0140   75.7970   47.2820 O.3    69  TYR69      -0.2866
     24  N         77.9700   82.6520   59.9090 N.3    80  GLU80      -0.1231
     25  CA        78.5860   81.4020   60.3450 C.3    80  GLU80       0.1699
     26  C         78.5870   80.4300   59.1820 C.2    80  GLU80       0.2593
     27  O         77.5820   80.2840   58.5000 O.2    80  GLU80      -0.2718
     28  CB        77.8130   80.7710   61.5020 C.3    80  GLU80       0.0402
     29  CG        78.3870   79.4130   61.9320 C.3    80  GLU80       0.1161
     30  CD        77.3920   78.5390   62.6900 C.2    80  GLU80       0.3649
     31  OE1       76.9770   78.9090   63.8110 O.co2  80  GLU80      -0.2457
     32  OE2       77.0260   77.4710   62.1540 O.co2  80  GLU80      -0.2457
     33  N         79.7210   79.7760   58.9580 N.am   81  GLY81      -0.1942
     34  CA        79.8300   78.8150   57.8780 C.3    81  GLY81       0.2014
     35  C         80.0330   79.3960   56.4930 C.2    81  GLY81       0.2639
     36  O         80.3430   78.6640   55.5530 O.2    81  GLY81      -0.2714
     37  N         79.8710   80.7080   56.3620 N.am   82  GLN82      -0.1963
     38  CA        80.0160   81.3950   55.0780 C.3    82  GLN82       0.1733
     39  C         78.7140   81.2910   54.2850 C.2    82  GLN82       0.2617
     40  O         78.7090   81.2540   53.0490 O.2    82  GLN82      -0.2715
     41  CB        81.1880   80.8310   54.2420 C.3    82  GLN82       0.0408
     42  CG        82.5980   81.1430   54.7760 C.3    82  GLN82       0.0908
     43  CD        83.6590   81.2160   53.6710 C.2    82  GLN82       0.2608
     44  OE1       83.7250   80.3540   52.7930 O.2    82  GLN82      -0.2717
     45  NE2       84.4980   82.2470   53.7230 N.am   82  GLN82      -0.0878
     46  N         77.6070   81.2270   55.0170 N.am   83  SER83      -0.1950
     47  CA        76.2890   81.1750   54.4000 C.3    83  SER83       0.1924
     48  C         75.9390   82.5870   53.9160 C.2    83  SER83       0.2314
     49  O         76.2560   83.5700   54.5800 O.2    83  SER83      -0.2863
     50  CB        75.2510   80.7210   55.4220 C.3    83  SER83       0.2116
     51  OG        75.5050   79.4000   55.8410 O.3    83  SER83      -0.2180
     52  N         72.9380   75.1170   55.0560 N.3    97  PHE97      -0.1227
     53  CA        73.8900   74.1600   54.4920 C.3    97  PHE97       0.1736
     54  C         74.2100   74.6020   53.0700 C.2    97  PHE97       0.2595
     55  O         74.4120   75.7850   52.8230 O.2    97  PHE97      -0.2718
     56  CB        73.2470   72.7690   54.4760 C.3    97  PHE97       0.0547
     57  CG        74.2210   71.6330   54.6080 C.ar   97  PHE97      -0.0202
     58  CD1       75.1400   71.6000   55.6630 C.ar   97  PHE97      -0.0042
     59  CD2       74.1700   70.5540   53.7220 C.ar   97  PHE97      -0.0042
     60  CE1       75.9880   70.5090   55.8400 C.ar   97  PHE97      -0.0003
     61  CE2       75.0110   69.4560   53.8880 C.ar   97  PHE97      -0.0003
     62  CZ        75.9230   69.4300   54.9520 C.ar   97  PHE97      -0.0000
     63  N         74.2310   73.6620   52.1340 N.am   98  TYR98      -0.1976
     64  CA        74.5120   73.9890   50.7370 C.3    98  TYR98       0.1639
     65  C         73.3110   74.5700   50.0130 C.2    98  TYR98       0.2290
     66  O         73.3520   74.7170   48.7970 O.2    98  TYR98      -0.2864
     67  CB        74.9650   72.7440   49.9680 C.3    98  TYR98       0.0560
     68  CG        76.4170   72.3720   50.1610 C.ar   98  TYR98      -0.0198
     69  CD1       77.4240   73.2680   49.8310 C.ar   98  TYR98      -0.0009
     70  CD2       76.7850   71.1090   50.6180 C.ar   98  TYR98      -0.0009
     71  CE1       78.7620   72.9250   49.9400 C.ar   98  TYR98       0.0417
     72  CE2       78.1280   70.7520   50.7360 C.ar   98  TYR98       0.0417
     73  CZ        79.1120   71.6700   50.3870 C.ar   98  TYR98       0.1957
     74  OH        80.4480   71.3510   50.4560 O.3    98  TYR98      -0.2866
     75  N         71.5000   77.6490   49.2860 N.3   100  ASP100     -0.1239
     76  CA        71.3690   79.0870   49.2270 C.3   100  ASP100      0.1674
     77  C         70.8740   79.3770   47.8230 C.2   100  ASP100      0.2266
     78  O         71.1660   78.6450   46.8860 O.2   100  ASP100     -0.2867
     79  CB        72.7130   79.7770   49.4830 C.3   100  ASP100      0.1410
     80  CG        72.8240   80.3440   50.8930 C.2   100  ASP100      0.3668
     81  OD1       71.8540   80.9810   51.3600 O.co2 100  ASP100     -0.2456
     82  OD2       73.8840   80.1680   51.5300 O.co2 100  ASP100     -0.2456
     83  N         83.3290   74.1750   42.2660 N.3   226  TYR226     -0.1241
     84  CA        83.2630   74.6390   43.6520 C.3   226  TYR226      0.1605
     85  C         84.2430   73.7940   44.5020 C.2   226  TYR226      0.2264
     86  O         83.9730   73.4550   45.6700 O.2   226  TYR226     -0.2867
     87  CB        81.8210   74.4870   44.1500 C.3   226  TYR226      0.0534
     88  CG        81.5170   75.2230   45.4250 C.ar  226  TYR226     -0.0201
     89  CD1       81.6420   76.6110   45.5030 C.ar  226  TYR226     -0.0009
     90  CD2       81.0900   74.5310   46.5540 C.ar  226  TYR226     -0.0009
     91  CE1       81.3490   77.2930   46.6750 C.ar  226  TYR226      0.0417
     92  CE2       80.7950   75.1990   47.7290 C.ar  226  TYR226      0.0417
     93  CZ        80.9260   76.5780   47.7870 C.ar  226  TYR226      0.1957
     94  OH        80.6360   77.2130   48.9650 O.3   226  TYR226     -0.2866
     95  N         88.3770   72.5690   45.8660 N.3   228  TRP228     -0.1241
     96  CA        89.4990   73.1110   46.6210 C.3   228  TRP228      0.1605
     97  C         90.8520   72.6690   46.0950 C.2   228  TRP228      0.2264
     98  O         91.0290   71.5310   45.6620 O.2   228  TRP228     -0.2867
     99  CB        89.4320   72.6870   48.0850 C.3   228  TRP228      0.0550
    100  CG        88.1760   72.9810   48.8070 C.ar  228  TRP228      0.0003
    101  CD1       87.1280   73.7360   48.3790 C.ar  228  TRP228      0.0946
    102  CD2       87.8370   72.5240   50.1120 C.ar  228  TRP228      0.0152
    103  NE1       86.1490   73.7760   49.3390 N.ar  228  TRP228     -0.2442
    104  CE2       86.5590   73.0400   50.4160 C.ar  228  TRP228      0.0810
    105  CE3       88.4900   71.7250   51.0590 C.ar  228  TRP228      0.0012
    106  CZ2       85.9220   72.7820   51.6250 C.ar  228  TRP228      0.0191
    107  CZ3       87.8560   71.4690   52.2590 C.ar  228  TRP228      0.0001
    108  CH2       86.5860   71.9960   52.5290 C.ar  228  TRP228      0.0015
    109  N         86.0460   66.6560   46.0080 N.3   295  TYR295     -0.1241
    110  CA        86.8200   67.8800   46.1910 C.3   295  TYR295      0.1605
    111  C         88.2070   67.5510   46.7150 C.2   295  TYR295      0.2264
    112  O         88.4220   66.4820   47.2780 O.2   295  TYR295     -0.2867
    113  CB        86.1010   68.8540   47.1470 C.3   295  TYR295      0.0534
    114  CG        85.7080   68.2730   48.4990 C.ar  295  TYR295     -0.0201
    115  CD1       84.8350   67.1950   48.5830 C.ar  295  TYR295     -0.0009
    116  CD2       86.2100   68.8060   49.6880 C.ar  295  TYR295     -0.0009
    117  CE1       84.4770   66.6600   49.7980 C.ar  295  TYR295      0.0417
    118  CE2       85.8500   68.2700   50.9230 C.ar  295  TYR295      0.0417
    119  CZ        84.9860   67.1910   50.9660 C.ar  295  TYR295      0.1957
    120  OH        84.6400   66.6020   52.1600 O.3   295  TYR295     -0.2866
    121  N         91.5800   67.7860   49.1050 N.3   297  TYR297     -0.1241
    122  CA        91.7840   67.9720   50.5350 C.3   297  TYR297      0.1605
    123  C         93.2580   68.1190   50.8830 C.2   297  TYR297      0.2264
    124  O         93.7530   67.4830   51.8080 O.2   297  TYR297     -0.2867
    125  CB        91.1900   66.8150   51.3290 C.3   297  TYR297      0.0534
    126  CG        90.6480   67.2550   52.6690 C.ar  297  TYR297     -0.0201
    127  CD1       89.5410   68.0950   52.7430 C.ar  297  TYR297     -0.0009
    128  CD2       91.2570   66.8580   53.8610 C.ar  297  TYR297     -0.0009
    129  CE1       89.0530   68.5270   53.9610 C.ar  297  TYR297      0.0417
    130  CE2       90.7770   67.2860   55.0850 C.ar  297  TYR297      0.0417
    131  CZ        89.6760   68.1210   55.1250 C.ar  297  TYR297      0.1957
    132  OH        89.1880   68.5580   56.3250 O.3   297  TYR297     -0.2866
    133  N         88.3370   63.8870   48.9730 N.3   326  LYS326     -0.1245
    134  CA        87.1730   63.3930   49.7070 C.3   326  LYS326      0.1561
    135  C         85.9500   63.6820   48.8350 C.2   326  LYS326      0.2260
    136  O         86.0840   64.2520   47.7430 O.2   326  LYS326     -0.2867
    137  CB        87.0700   64.0930   51.0670 C.3   326  LYS326      0.0271
    138  CG        88.2650   63.7750   51.9660 C.3   326  LYS326      0.0035
    139  CD        88.1650   64.3800   53.3440 C.3   326  LYS326      0.0206
    140  CE        89.2940   63.8750   54.2220 C.3   326  LYS326      0.1093
    141  NZ        89.3160   64.5180   55.5630 N.3   326  LYS326     -0.1314
    142  N         81.2600   64.1620   48.4900 N.3   328  VAL328     -0.1245
    143  CA        79.9620   64.4200   49.0800 C.3   328  VAL328      0.1561
    144  C         78.8380   64.1370   48.0970 C.2   328  VAL328      0.2260
    145  O         79.0060   64.2780   46.8830 O.2   328  VAL328     -0.2867
    146  CB        79.8210   65.8800   49.5590 C.3   328  VAL328      0.0252
    147  CG1       80.1340   66.8380   48.4190 C.3   328  VAL328      0.0019
    148  CG2       78.4050   66.1220   50.0650 C.3   328  VAL328      0.0019
    149  N         78.8950   61.6040   53.1410 N.3   373  PHE373     -0.1227
    150  CA        80.2500   62.1480   53.0340 C.3   373  PHE373      0.1736
    151  C         81.4100   61.1700   53.1870 C.2   373  PHE373      0.2596
    152  O         81.4860   60.4080   54.1560 O.2   373  PHE373     -0.2718
    153  CB        80.4590   63.2780   54.0410 C.3   373  PHE373      0.0547
    154  CG        79.4810   64.3870   53.9030 C.ar  373  PHE373     -0.0202
    155  CD1       78.1970   64.2600   54.4090 C.ar  373  PHE373     -0.0042
    156  CD2       79.8270   65.5520   53.2380 C.ar  373  PHE373     -0.0042
    157  CE1       77.2720   65.2780   54.2540 C.ar  373  PHE373     -0.0003
    158  CE2       78.9080   66.5730   53.0800 C.ar  373  PHE373     -0.0003
    159  CZ        77.6290   66.4400   53.5850 C.ar  373  PHE373     -0.0000
    160  N         82.3230   61.2240   52.2200 N.am  374  GLY374     -0.1942
    161  CA        83.5010   60.3860   52.2570 C.3   374  GLY374      0.2014
    162  C         84.5770   61.0550   53.1040 C.2   374  GLY374      0.2638
    163  O         84.8220   62.2580   52.9720 O.2   374  GLY374     -0.2714
    164  N         85.2190   60.2740   53.9720 N.am  375  TYR375     -0.1973
    165  CA        86.2650   60.7800   54.8500 C.3   375  TYR375      0.1639
    166  C         87.6360   60.3680   54.3240 C.2   375  TYR375      0.2290
    167  O         87.8160   60.2100   53.1180 O.2   375  TYR375     -0.2864
    168  CB        86.0590   60.2220   56.2520 C.3   375  TYR375      0.0560
    169  CG        84.6270   60.3000   56.7320 C.ar  375  TYR375     -0.0198
    170  CD1       83.9820   61.5340   56.8770 C.ar  375  TYR375     -0.0009
    171  CD2       83.9220   59.1450   57.0620 C.ar  375  TYR375     -0.0009
    172  CE1       82.6670   61.6120   57.3400 C.ar  375  TYR375      0.0417
    173  CE2       82.6100   59.2100   57.5260 C.ar  375  TYR375      0.0417
    174  CZ        81.9900   60.4440   57.6650 C.ar  375  TYR375      0.1957
    175  OH        80.6980   60.5040   58.1360 O.3   375  TYR375     -0.2866
    176  N         74.6980   61.4420   56.2930 N.3   416  TYR416     -0.1241
    177  CA        74.3770   62.6760   57.0060 C.3   416  TYR416      0.1605
    178  C         72.9330   63.0210   56.6760 C.2   416  TYR416      0.2264
    179  O         72.6160   63.3100   55.5230 O.2   416  TYR416     -0.2867
    180  CB        75.2800   63.8120   56.5250 C.3   416  TYR416      0.0534
    181  CG        75.1670   65.1030   57.3170 C.ar  416  TYR416     -0.0201
    182  CD1       75.4620   65.1330   58.6770 C.ar  416  TYR416     -0.0009
    183  CD2       74.7890   66.2970   56.7030 C.ar  416  TYR416     -0.0009
    184  CE1       75.3870   66.3060   59.4080 C.ar  416  TYR416      0.0417
    185  CE2       74.7090   67.4850   57.4310 C.ar  416  TYR416      0.0417
    186  CZ        75.0100   67.4780   58.7860 C.ar  416  TYR416      0.1957
    187  OH        74.9300   68.6340   59.5310 O.3   416  TYR416     -0.2866
    188  N         74.4630   77.6920   65.6070 N.3   497  SER497     -0.1202
    189  CA        73.8400   76.4180   65.2760 C.3   497  SER497      0.2020
    190  C         74.7260   75.2770   65.7710 C.2   497  SER497      0.2618
    191  O         74.4360   74.1000   65.5430 O.2   497  SER497     -0.2717
    192  CB        73.6450   76.3090   63.7610 C.3   497  SER497      0.2103
    193  OG        74.8830   76.3430   63.0630 O.3   497  SER497     -0.2182
    194  N         75.8120   75.6420   66.4530 N.am  498  GLN498     -0.1979
    195  CA        76.7720   74.6740   66.9760 C.3   498  GLN498      0.1601
    196  C         76.4600   74.1930   68.3860 C.2   498  GLN498      0.2287
    197  O         75.8700   74.9100   69.2030 O.2   498  GLN498     -0.2864
    198  CB        78.1800   75.2650   66.9490 C.3   498  GLN498      0.0394
    199  CG        78.6520   75.6270   65.5700 C.3   498  GLN498      0.0908
    200  CD        78.5900   74.4540   64.6180 C.2   498  GLN498      0.2608
    201  OE1       79.2430   73.4310   64.8290 O.2   498  GLN498     -0.2717
    202  NE2       77.7980   74.5940   63.5590 N.am  498  GLN498     -0.0878
    203  N         91.0300   79.6590   52.2510 N.3   686  PHE686     -0.1227
    204  CA        90.3900   79.7140   53.5610 C.3   686  PHE686      0.1736
    205  C         91.2580   78.9100   54.5400 C.2   686  PHE686      0.2595
    206  O         91.1650   79.0710   55.7530 O.2   686  PHE686     -0.2718
    207  CB        88.9290   79.2140   53.4970 C.3   686  PHE686      0.0547
    208  CG        88.7790   77.7440   53.1930 C.ar  686  PHE686     -0.0202
    209  CD1       88.7800   76.8020   54.2160 C.ar  686  PHE686     -0.0042
    210  CD2       88.6430   77.3020   51.8810 C.ar  686  PHE686     -0.0042
    211  CE1       88.6490   75.4530   53.9340 C.ar  686  PHE686     -0.0003
    212  CE2       88.5120   75.9490   51.5900 C.ar  686  PHE686     -0.0003
    213  CZ        88.5150   75.0230   52.6140 C.ar  686  PHE686     -0.0000
    214  N         92.1150   78.0580   53.9870 N.am  687  ASN687     -0.1974
    215  CA        93.0620   77.2720   54.7690 C.3   687  ASN687      0.1688
    216  C         94.2020   76.8370   53.8480 C.2   687  ASN687      0.2292
    217  O         94.3540   77.3990   52.7660 O.2   687  ASN687     -0.2864
    218  CB        92.4050   76.0470   55.4080 C.3   687  ASN687      0.1181
    219  CG        93.0820   75.6560   56.7150 C.2   687  ASN687      0.2629
    220  OD1       94.2950   75.4390   56.7620 O.2   687  ASN687     -0.2716
    221  ND2       92.3020   75.5860   57.7860 N.am  687  ASN687     -0.0877
    222  N         94.5410   73.8010   52.5330 N.3   689  TYR689     -0.1241
    223  CA        94.0360   72.8350   51.5770 C.3   689  TYR689      0.1605
    224  C         92.8540   73.4190   50.8000 C.2   689  TYR689      0.2264
    225  O         92.2410   72.7230   49.9830 O.2   689  TYR689     -0.2867
    226  CB        93.6400   71.5510   52.3140 C.3   689  TYR689      0.0534
    227  CG        92.8830   71.7930   53.6040 C.ar  689  TYR689     -0.0201
    228  CD1       91.4870   71.9090   53.6160 C.ar  689  TYR689     -0.0009
    229  CD2       93.5660   71.9350   54.8120 C.ar  689  TYR689     -0.0009
    230  CE1       90.7920   72.1570   54.8010 C.ar  689  TYR689      0.0417
    231  CE2       92.8870   72.1850   55.9960 C.ar  689  TYR689      0.0417
    232  CZ        91.4980   72.2960   55.9900 C.ar  689  TYR689      0.1957
    233  OH        90.8320   72.5530   57.1730 O.3   689  TYR689     -0.2866
@<TRIPOS>BOND
     1    83    84    1
     2    84    87    1
     3    84    85    1
     4     4     3    2
     5    87    88    1
     6    12    13    1
     7     3     2    1
     8    15    14    2
     9    85    86    2
    10    14    13    1
    11    13    16    1
    12    88    89   ar
    13    88    90   ar
    14    89    91   ar
    15    98    97    2
    16     6     5    1
    17     6     7    1
    18     2     5    1
    19     2     1    1
    20    95    96    1
    21   109   110    1
    22    97    96    1
    23   110   111    1
    24   110   113    1
    25    90    92   ar
    26    96    99    1
    27    91    93   ar
    28    16    17    1
    29   111   112    2
    30     8     7    1
    31     8     9    2
    32   145   144    2
    33    78    77    2
    34    18    17   ar
    35    18    20   ar
    36    17    19   ar
    37    20    22   ar
    38    19    21   ar
    39   113   114    1
    40    22    21   ar
    41    22    23    1
    42    11     9    1
    43    92    93   ar
    44   136   135    2
    45    93    94    1
    46     9    10    1
    47    77    76    1
    48    99   100    1
    49   144   143    1
    50   101   100   ar
    51   101   103   ar
    52   147   146    1
    53   142   143    1
    54   114   115   ar
    55   114   116   ar
    56   115   117   ar
    57    66    65    2
    58   100   102   ar
    59   135   134    1
    60   133   134    1
    61   143   146    1
    62   121   122    1
    63    76    75    1
    64    76    79    1
    65   103   104   ar
    66    79    80    1
    67   146   148    1
    68   116   118   ar
    69   134   137    1
    70   117   119   ar
    71    69    71   ar
    72    69    68   ar
    73    71    73   ar
    74    67    68    1
    75    67    64    1
    76   225   224    2
    77    65    64    1
    78   102   104   ar
    79   102   105   ar
    80    68    70   ar
    81    73    74    1
    82    73    72   ar
    83   104   106   ar
    84   122   123    1
    85   122   125    1
    86    70    72   ar
    87    64    63    1
    88   224   223    1
    89   123   124    2
    90    80    81   ar
    91    80    82   ar
    92   118   119   ar
    93   119   120    1
    94   105   107   ar
    95   137   138    1
    96   125   126    1
    97   223   226    1
    98   223   222    1
    99   212   210   ar
   100   212   213   ar
   101   106   108   ar
   102   210   208   ar
   103   138   139    1
   104    63    54   am
   105   160   161    1
   106   160   151   am
   107   203   204    1
   108   161   162    1
   109   107   108   ar
   110   226   227    1
   111   213   211   ar
   112   126   127   ar
   113   126   128   ar
   114   127   129   ar
   115   217   216    2
   116    44    43    2
   117    55    54    2
   118   163   162    2
   119   150   149    1
   120   150   151    1
   121   150   153    1
   122    40    39    2
   123    54    53    1
   124   158   156   ar
   125   158   159   ar
   126   162   164   am
   127   167   166    2
   128   151   152    2
   129   208   207    1
   130   208   209   ar
   131   156   154   ar
   132   139   140    1
   133   207   204    1
   134   204   205    1
   135   159   157   ar
   136   227   228   ar
   137   227   229   ar
   138   228   230   ar
   139    43    45   am
   140    43    42    1
   141    59    61   ar
   142    59    57   ar
   143   216   215    1
   144   128   130   ar
   145    61    62   ar
   146   154   153    1
   147   154   155   ar
   148    48    47    1
   149    48    49    2
   150   211   209   ar
   151   129   131   ar
   152   164   165    1
   153   214   205   am
   154   214   215    1
   155   140   141    1
   156    41    42    1
   157    41    38    1
   158   157   155   ar
   159    39    46   am
   160    39    38    1
   161   166   165    1
   162    47    46    1
   163    47    50    1
   164    56    53    1
   165    56    57    1
   166    53    52    1
   167   205   206    2
   168    57    58   ar
   169   215   218    1
   170   230   232   ar
   171   229   231   ar
   172   165   168    1
   173    62    60   ar
   174    38    37    1
   175   130   131   ar
   176   131   132    1
   177   218   219    1
   178    50    51    1
   179   179   178    2
   180    36    35    2
   181    58    60   ar
   182   232   231   ar
   183   232   233    1
   184   168   169    1
   185   176   177    1
   186    37    35   am
   187    35    34    1
   188   180   177    1
   189   180   181    1
   190   178   177    1
   191   183   181   ar
   192   183   185   ar
   193   219   220    2
   194   219   221   am
   195   169   170   ar
   196   169   171   ar
   197   170   172   ar
   198   171   173   ar
   199   181   182   ar
   200   172   174   ar
   201   185   186   ar
   202   173   174   ar
   203   174   175    1
   204    34    33    1
   205    27    26    2
   206   182   184   ar
   207   186   184   ar
   208   186   187    1
   209    33    26   am
   210    26    25    1
   211    24    25    1
   212    25    28    1
   213    28    29    1
   214    29    30    1
   215    32    30   ar
   216    30    31   ar
   217   193   192    1
   218   202   200   am
   219   192   189    1
   220   200   201    2
   221   200   199    1
   222   189   188    1
   223   189   190    1
   224   191   190    2
   225   199   198    1
   226   190   194   am
   227   194   195    1
   228   198   195    1
   229   195   196    1
   230   196   197    2
