@<TRIPOS>MOLECULE
tmp/1figB00.pdb
 129 127 0 0 0
SMALL
GASTEIGER

@<TRIPOS>ATOM
      1  N          8.9610   51.5630    2.3130 N.3    31  GLY31      -0.1210
      2  CA         9.7190   51.9110    3.5360 C.3    31  GLY31       0.1956
      3  C          9.3110   50.8460    4.5760 C.2    31  GLY31       0.2612
      4  O          8.3710   50.9760    5.3730 O.2    31  GLY31      -0.2717
      5  N          9.9900   49.7170    4.5520 N.am   32  HIS32      -0.1961
      6  CA         9.4320   48.5420    5.1880 C.3    32  HIS32       0.1787
      7  C         10.3610   47.4410    4.7680 C.2    32  HIS32       0.2620
      8  O         10.8060   47.3890    3.6170 O.2    32  HIS32      -0.2715
      9  CB         8.0430   48.1410    4.6170 C.3    32  HIS32       0.0785
     10  CG         7.0070   47.7620    5.6360 C.ar   32  HIS32       0.0821
     11  ND1        6.0970   48.5750    6.1220 N.ar   32  HIS32      -0.2267
     12  CD2        6.9000   46.5610    6.2550 C.ar   32  HIS32       0.1154
     13  CE1        5.4440   47.9260    7.0300 C.ar   32  HIS32       0.1986
     14  NE2        5.9370   46.7160    7.0980 N.ar   32  HIS32      -0.2212
     15  N         10.6270   46.5230    5.6520 N.am   33  ASN33      -0.1972
     16  CA        11.3430   45.3800    5.2350 C.3    33  ASN33       0.1688
     17  C         10.7570   44.3030    6.0820 C.2    33  ASN33       0.2292
     18  O         10.4760   44.4490    7.2770 O.2    33  ASN33      -0.2864
     19  CB        12.8130   45.5650    5.5030 C.3    33  ASN33       0.1181
     20  CG        13.5500   46.2050    4.3450 C.2    33  ASN33       0.2629
     21  OD1       13.5690   45.6290    3.2660 O.2    33  ASN33      -0.2716
     22  ND2       14.1770   47.3630    4.4740 N.am   33  ASN33      -0.0877
     23  N         11.6820   41.0830    7.1900 N.3    35  ASN35      -0.1240
     24  CA        12.8580   40.3230    7.4900 C.3    35  ASN35       0.1653
     25  C         12.2990   38.9560    7.8430 C.2    35  ASN35       0.2266
     26  O         11.2340   38.7720    8.4560 O.2    35  ASN35      -0.2867
     27  CB        13.6210   40.9280    8.6800 C.3    35  ASN35       0.1155
     28  CG        14.1550   42.3620    8.5500 C.2    35  ASN35       0.2627
     29  OD1       15.3190   42.5950    8.2320 O.2    35  ASN35      -0.2716
     30  ND2       13.3510   43.3920    8.8040 N.am   35  ASN35      -0.0877
     31  N         18.9940   35.5720   11.5470 N.3    47  TRP47      -0.1241
     32  CA        18.3620   36.3490   10.4840 C.3    47  TRP47       0.1605
     33  C         18.9810   36.0330    9.1270 C.2    47  TRP47       0.2264
     34  O         20.1730   35.7580    9.0230 O.2    47  TRP47      -0.2867
     35  CB        18.5070   37.8560   10.9150 C.3    47  TRP47       0.0550
     36  CG        18.1660   39.0320    9.9830 C.ar   47  TRP47       0.0003
     37  CD1       16.9330   39.6370   10.0150 C.ar   47  TRP47       0.0946
     38  CD2       19.0270   39.6620    9.1030 C.ar   47  TRP47       0.0152
     39  NE1       17.0160   40.6440    9.1810 N.ar   47  TRP47      -0.2442
     40  CE2       18.2360   40.6860    8.6210 C.ar   47  TRP47       0.0810
     41  CE3       20.3270   39.5300    8.6490 C.ar   47  TRP47       0.0012
     42  CZ2       18.7230   41.5800    7.6960 C.ar   47  TRP47       0.0191
     43  CZ3       20.8130   40.4210    7.7260 C.ar   47  TRP47       0.0001
     44  CH2       20.0160   41.4390    7.2540 C.ar   47  TRP47       0.0015
     45  N         16.6080   40.8220    4.1160 N.3    50  ASN50      -0.1240
     46  CA        15.2450   41.3190    4.0260 C.3    50  ASN50       0.1653
     47  C         14.8270   41.7270    2.6240 C.2    50  ASN50       0.2266
     48  O         15.7010   41.8280    1.7640 O.2    50  ASN50      -0.2867
     49  CB        15.0650   42.4750    5.0300 C.3    50  ASN50       0.1155
     50  CG        16.0230   43.6530    5.0120 C.2    50  ASN50       0.2627
     51  OD1       16.6890   43.9630    4.0390 O.2    50  ASN50      -0.2716
     52  ND2       16.1600   44.3540    6.1210 N.am   50  ASN50      -0.0877
     53  N         19.1560   42.9760    1.4220 N.3    59  ASN59      -0.1240
     54  CA        20.2940   43.2370    2.2860 C.3    59  ASN59       0.1653
     55  C         20.4680   41.7750    2.7250 C.2    59  ASN59       0.2266
     56  O         19.4360   41.1880    3.0470 O.2    59  ASN59      -0.2867
     57  CB        19.8660   44.2070    3.4520 C.3    59  ASN59       0.1155
     58  CG        19.0780   45.5530    3.1960 C.2    59  ASN59       0.2627
     59  OD1       19.0440   46.1620    2.1110 O.2    59  ASN59      -0.2716
     60  ND2       18.3520   46.1190    4.1610 N.am   59  ASN59      -0.0877
     61  N          7.5690   43.6310   11.2730 N.3    98  ARG98      -0.1182
     62  CA         7.2940   45.0460   10.8810 C.3    98  ARG98       0.1910
     63  C          7.5610   46.3270   11.7210 C.2    98  ARG98       0.2634
     64  O          7.4190   46.4550   12.9420 O.2    98  ARG98      -0.2714
     65  CB         5.7760   45.0770   10.3980 C.2    98  ARG98       0.0007
     66  CG         4.9350   46.3630   10.0820 C.2    98  ARG98       0.0176
     67  CD         3.4280   46.1600    9.8310 C.3    98  ARG98       0.2464
     68  NE         3.1300   45.3500    8.6550 N.pl3  98  ARG98      -0.0815
     69  CZ         1.8960   44.9500    8.3140 C.cat  98  ARG98       0.5349
     70  NH1        0.8290   45.2470    9.0220 N.pl3  98  ARG98       0.1354
     71  NH2        1.6760   44.2810    7.1960 N.pl3  98  ARG98       0.1354
     72  N          7.8320   47.3200   10.8720 N.am   99  ARG99      -0.1977
     73  CA         7.9870   48.7310   11.2130 C.3    99  ARG99       0.1597
     74  C          6.7780   49.6530   11.2810 C.2    99  ARG99       0.2287
     75  O          5.9660   49.7750   10.3380 O.2    99  ARG99      -0.2864
     76  CB         8.9350   49.4630   10.2580 C.3    99  ARG99       0.0334
     77  CG         8.6690   49.6980    8.7850 C.3    99  ARG99       0.0492
     78  CD         8.9740   51.1900    8.5040 C.3    99  ARG99       0.2205
     79  NE        10.2590   51.6930    9.0090 N.pl3  99  ARG99      -0.0865
     80  CZ        10.5690   52.9980    9.1440 C.cat  99  ARG99       0.5346
     81  NH1        9.7030   53.9610    8.8170 N.pl3  99  ARG99       0.1354
     82  NH2       11.7690   53.3460    9.6340 N.pl3  99  ARG99       0.1354
     83  N          8.0660   52.0420   13.5950 N.3   101  ASP101     -0.1225
     84  CA         9.0480   53.0390   13.9240 C.3   101  ASP101      0.1805
     85  C         10.4870   52.8730   13.5020 C.2   101  ASP101      0.2598
     86  O         10.8490   52.3070   12.4750 O.2   101  ASP101     -0.2718
     87  CB         8.9580   53.1890   15.4280 C.3   101  ASP101      0.1424
     88  CG         7.9910   54.2430   15.8910 C.2   101  ASP101      0.3668
     89  OD1        8.2550   55.4160   15.6140 O.co2 101  ASP101     -0.2456
     90  OD2        7.0090   53.8640   16.5330 O.co2 101  ASP101     -0.2456
     91  N         11.2830   53.5500   14.3340 N.am  102  GLY102     -0.1942
     92  CA        12.6960   53.3490   14.4000 C.3   102  GLY102      0.2014
     93  C         12.8780   52.4970   15.6450 C.2   102  GLY102      0.2639
     94  O         13.8300   52.6540   16.4200 O.2   102  GLY102     -0.2714
     95  N         11.9340   51.5850   15.9100 N.am  103  ASN103     -0.1958
     96  CA        12.2180   50.6500   16.9590 C.3   103  ASN103      0.1819
     97  C         12.9950   49.4740   16.3380 C.2   103  ASN103      0.2621
     98  O         13.0110   48.4420   16.9660 O.2   103  ASN103     -0.2715
     99  CB        10.8950   50.2170   17.7030 C.3   103  ASN103      0.1195
    100  CG         9.6850   49.6120   17.0000 C.2   103  ASN103      0.2630
    101  OD1        8.8460   50.2930   16.4180 O.2   103  ASN103     -0.2716
    102  ND2        9.4580   48.3320   17.0580 N.am  103  ASN103     -0.0877
    103  N         13.7280   49.5680   15.1970 N.am  104  TYR104     -0.1960
    104  CA        14.6580   48.6080   14.5410 C.3   104  TYR104      0.1771
    105  C         14.7900   47.1570   15.0390 C.2   104  TYR104      0.2620
    106  O         15.8590   46.5450   15.1820 O.2   104  TYR104     -0.2715
    107  CB        16.0040   49.2520   14.5750 C.3   104  TYR104      0.0574
    108  CG        16.9140   48.8860   13.4320 C.ar  104  TYR104     -0.0198
    109  CD1       16.8430   49.5900   12.2390 C.ar  104  TYR104     -0.0009
    110  CD2       17.8370   47.9010   13.6060 C.ar  104  TYR104     -0.0009
    111  CE1       17.7140   49.3040   11.2140 C.ar  104  TYR104      0.0417
    112  CE2       18.6970   47.6010   12.5870 C.ar  104  TYR104      0.0417
    113  CZ        18.6320   48.3000   11.4190 C.ar  104  TYR104      0.1957
    114  OH        19.5090   47.9750   10.4210 O.3   104  TYR104     -0.2866
    115  N         13.6030   46.6440   15.2830 N.am  105  GLY105     -0.1940
    116  CA        13.3390   45.4350   16.0020 C.3   105  GLY105      0.2014
    117  C         11.8540   45.6190   16.1250 C.2   105  GLY105      0.2638
    118  O         11.2930   46.5340   16.7080 O.2   105  GLY105     -0.2714
    119  N         11.3360   44.5820   15.5570 N.am  106  PHE106     -0.1973
    120  CA        10.0010   44.4870   15.0560 C.3   106  PHE106      0.1639
    121  C          8.9710   44.2420   16.1200 C.2   106  PHE106      0.2290
    122  O          9.2190   43.4510   17.0130 O.2   106  PHE106     -0.2864
    123  CB        10.0480   43.3630   14.0000 C.3   106  PHE106      0.0560
    124  CG        11.4340   43.1090   13.3560 C.ar  106  PHE106     -0.0200
    125  CD1       11.9580   43.9820   12.4150 C.ar  106  PHE106     -0.0042
    126  CD2       12.1910   42.0160   13.7610 C.ar  106  PHE106     -0.0042
    127  CE1       13.2140   43.7670   11.8920 C.ar  106  PHE106     -0.0003
    128  CE2       13.4490   41.8150   13.2280 C.ar  106  PHE106     -0.0003
    129  CZ        13.9610   42.6900   12.2940 C.ar  106  PHE106     -0.0000
@<TRIPOS>BOND
     1    53    54    1
     2    48    47    2
     3    59    58    2
     4    54    55    1
     5    54    57    1
     6     1     2    1
     7    47    46    1
     8    55    56    2
     9    58    57    1
    10    58    60   am
    11    21    20    2
    12     2     3    1
    13     8     7    2
    14    46    45    1
    15    46    49    1
    16    51    50    2
    17    20    22   am
    18    20    19    1
    19     5     3   am
    20     5     6    1
    21     3     4    2
    22     9     6    1
    23     9    10    1
    24     7     6    1
    25     7    15   am
    26    50    49    1
    27    50    52   am
    28    16    19    1
    29    16    15    1
    30    16    17    1
    31    10    11   ar
    32    10    12   ar
    33    17    18    2
    34    11    13   ar
    35    12    14   ar
    36    13    14   ar
    37    23    24    1
    38    71    69    1
    39    44    42   ar
    40    44    43   ar
    41    24    25    1
    42    24    27    1
    43    42    40   ar
    44    43    41   ar
    45    25    26    2
    46    29    28    2
    47    69    68    2
    48    69    70    1
    49    78    77    1
    50    78    79    1
    51    28    27    1
    52    28    30   am
    53    40    38   ar
    54    40    39   ar
    55    41    38   ar
    56    68    67    1
    57    77    76    1
    58    81    80    1
    59    79    80    2
    60    34    33    2
    61    38    36   ar
    62    33    32    1
    63    80    82    1
    64    39    37   ar
    65    67    66    1
    66    36    37   ar
    67    36    35    1
    68    66    65    2
    69    76    73    1
    70    75    74    2
    71    65    62    1
    72   114   113    1
    73    32    35    1
    74    32    31    1
    75    72    73    1
    76    72    63   am
    77    62    61    1
    78    62    63    1
    79    73    74    1
    80   111   113   ar
    81   111   109   ar
    82   113   112   ar
    83    63    64    2
    84   127   129   ar
    85   127   125   ar
    86   109   108   ar
    87   129   128   ar
    88   125   124   ar
    89    86    85    2
    90   112   110   ar
    91   128   126   ar
    92   124   126   ar
    93   124   123    1
    94   108   110   ar
    95   108   107    1
    96    85    84    1
    97    85    91   am
    98    83    84    1
    99    84    87    1
   100   123   120    1
   101    91    92    1
   102    92    93    1
   103   104   107    1
   104   104   105    1
   105   104   103    1
   106   105   106    2
   107   105   115   am
   108   120   119    1
   109   120   121    1
   110   103    97   am
   111   115   116    1
   112    87    88    1
   113   119   117   am
   114    89    88   ar
   115    93    95   am
   116    93    94    2
   117    88    90   ar
   118    95    96    1
   119   116   117    1
   120   121   122    2
   121   117   118    2
   122    97    96    1
   123    97    98    2
   124   101   100    2
   125    96    99    1
   126   100   102   am
   127   100    99    1
