@<TRIPOS>MOLECULE
tmp/1fihA00.pdb
 113 107 0 0 0
SMALL
GASTEIGER

@<TRIPOS>ATOM
      1  N         39.8490   -4.8800   15.2240 N.3   110  LYS110     -0.1245
      2  CA        41.1040   -4.5290   14.5950 C.3   110  LYS110      0.1561
      3  C         41.8070   -5.8820   14.4610 C.2   110  LYS110      0.2260
      4  O         41.4720   -6.8330   15.1750 O.2   110  LYS110     -0.2867
      5  CB        41.8770   -3.5950   15.5320 C.3   110  LYS110      0.0271
      6  CG        43.2590   -3.1610   15.0770 C.3   110  LYS110      0.0035
      7  CD        43.8600   -2.1980   16.1060 C.3   110  LYS110      0.0206
      8  CE        45.2410   -1.7090   15.7000 C.3   110  LYS110      0.1093
      9  NZ        46.2090   -2.8310   15.5410 N.3   110  LYS110     -0.1314
     10  N         42.8320   -8.6050   17.4530 N.3   113  GLN113     -0.1245
     11  CA        42.0700   -8.2110   18.6390 C.3   113  GLN113      0.1566
     12  C         40.7580   -8.9810   18.5440 C.2   113  GLN113      0.2260
     13  O         40.3110   -9.2930   17.4420 O.2   113  GLN113     -0.2867
     14  CB        41.7750   -6.7060   18.6370 C.3   113  GLN113      0.0367
     15  CG        43.0030   -5.7970   18.6730 C.3   113  GLN113      0.0905
     16  CD        43.8920   -6.0370   19.8810 C.2   113  GLN113      0.2608
     17  OE1       43.4220   -6.4570   20.9460 O.2   113  GLN113     -0.2717
     18  NE2       45.1820   -5.7500   19.7280 N.am  113  GLN113     -0.0878
     19  N         42.4500   -9.5940   22.4870 N.3   115  ASP115     -0.1239
     20  CA        43.5110  -10.4790   22.9600 C.3   115  ASP115      0.1674
     21  C         43.6330  -10.5650   24.4830 C.2   115  ASP115      0.2266
     22  O         44.5780  -11.1640   24.9920 O.2   115  ASP115     -0.2867
     23  CB        44.8490  -10.0400   22.3560 C.3   115  ASP115      0.1410
     24  CG        45.2330   -8.6360   22.7590 C.2   115  ASP115      0.3668
     25  OD1       44.3880   -7.9370   23.3620 O.co2 115  ASP115     -0.2456
     26  OD2       46.3780   -8.2270   22.4770 O.co2 115  ASP115     -0.2456
     27  N         44.7860   -8.7840   26.8020 N.3   117  TRP117     -0.1241
     28  CA        46.1620   -8.5080   27.1990 C.3   117  TRP117      0.1605
     29  C         46.3610   -8.1540   28.6750 C.2   117  TRP117      0.2264
     30  O         45.5470   -7.4470   29.2740 O.2   117  TRP117     -0.2867
     31  CB        46.7040   -7.3810   26.3160 C.3   117  TRP117      0.0550
     32  CG        48.1680   -7.1420   26.4370 C.ar  117  TRP117      0.0003
     33  CD1       49.1610   -8.0790   26.3780 C.ar  117  TRP117      0.0946
     34  CD2       48.8200   -5.8730   26.5690 C.ar  117  TRP117      0.0152
     35  NE1       50.3910   -7.4710   26.4600 N.ar  117  TRP117     -0.2442
     36  CE2       50.2130   -6.1180   26.5780 C.ar  117  TRP117      0.0810
     37  CE3       48.3620   -4.5520   26.6770 C.ar  117  TRP117      0.0012
     38  CZ2       51.1570   -5.0870   26.6920 C.ar  117  TRP117      0.0191
     39  CZ3       49.3010   -3.5240   26.7890 C.ar  117  TRP117      0.0001
     40  CH2       50.6840   -3.8010   26.7960 C.ar  117  TRP117      0.0015
     41  N         41.8160   -7.4880   29.6400 N.3   126  GLU126     -0.1245
     42  CA        41.0820   -6.4290   28.9640 C.3   126  GLU126      0.1567
     43  C         39.6660   -6.9570   28.7240 C.2   126  GLU126      0.2260
     44  O         39.4760   -7.9210   27.9850 O.2   126  GLU126     -0.2867
     45  CB        41.7750   -6.0640   27.6420 C.3   126  GLU126      0.0388
     46  CG        43.2410   -5.6240   27.8030 C.3   126  GLU126      0.1160
     47  CD        43.9000   -5.2310   26.4770 C.2   126  GLU126      0.3649
     48  OE1       43.7950   -6.0120   25.5120 O.co2 126  GLU126     -0.2457
     49  OE2       44.5330   -4.1530   26.4070 O.co2 126  GLU126     -0.2457
     50  N         36.6640   -0.4710   22.9740 N.3   130  HIS130     -0.1241
     51  CA        36.6440    0.9140   22.5550 C.3   130  HIS130      0.1621
     52  C         36.9290    0.9940   21.0690 C.2   130  HIS130      0.2264
     53  O         37.5680    0.1090   20.4880 O.2   130  HIS130     -0.2867
     54  CB        37.6540    1.7540   23.3510 C.3   130  HIS130      0.0745
     55  CG        39.0880    1.4260   23.0700 C.ar  130  HIS130      0.0817
     56  ND1       39.9010    2.2370   22.3070 N.ar  130  HIS130     -0.2268
     57  CD2       39.8610    0.3860   23.4660 C.ar  130  HIS130      0.1154
     58  CE1       41.1130    1.7120   22.2450 C.ar  130  HIS130      0.1986
     59  NE2       41.1140    0.5870   22.9400 N.ar  130  HIS130     -0.2212
     60  N         38.5940    3.0180   17.8620 N.3   132  VAL132     -0.1245
     61  CA        39.7510    3.8650   17.6400 C.3   132  VAL132      0.1561
     62  C         39.3710    4.8650   16.5510 C.2   132  VAL132      0.2260
     63  O         38.2330    4.8680   16.0810 O.2   132  VAL132     -0.2867
     64  CB        40.9810    3.0410   17.2000 C.3   132  VAL132      0.0252
     65  CG1       41.3230    2.0170   18.2710 C.3   132  VAL132      0.0019
     66  CG2       40.7100    2.3600   15.8750 C.3   132  VAL132      0.0019
     67  N         39.1020   -2.5400   19.6830 N.3   138  ASN138     -0.1225
     68  CA        40.1470   -3.1720   20.4690 C.3   138  ASN138      0.1785
     69  C         39.5710   -3.4070   21.8550 C.2   138  ASN138      0.2597
     70  O         38.7250   -2.6290   22.3090 O.2   138  ASN138     -0.2718
     71  CB        41.3720   -2.2680   20.6140 C.3   138  ASN138      0.1169
     72  CG        42.3820   -2.8270   21.6030 C.2   138  ASN138      0.2627
     73  OD1       42.7820   -3.9900   21.5020 O.2   138  ASN138     -0.2716
     74  ND2       42.8020   -2.0040   22.5620 N.am  138  ASN138     -0.0877
     75  N         39.9930   -4.4900   22.5090 N.am  139  ASP139     -0.1960
     76  CA        39.5470   -4.7350   23.8690 C.3   139  ASP139      0.1840
     77  C         40.6400   -4.0880   24.7230 C.2   139  ASP139      0.2622
     78  O         41.8230   -4.2050   24.4070 O.2   139  ASP139     -0.2715
     79  CB        39.3890   -6.2460   24.1570 C.3   139  ASP139      0.1450
     80  CG        40.6740   -7.0540   23.9400 C.2   139  ASP139      0.3671
     81  OD1       41.5430   -6.6550   23.1340 O.co2 139  ASP139     -0.2456
     82  OD2       40.7900   -8.1240   24.5750 O.co2 139  ASP139     -0.2456
     83  N         40.2410   -3.3630   25.7660 N.am  140  ASP140     -0.1971
     84  CA        41.1930   -2.6930   26.6340 C.3   140  ASP140      0.1709
     85  C         40.6980   -2.8140   28.0660 C.2   140  ASP140      0.2293
     86  O         39.6030   -3.3290   28.3240 O.2   140  ASP140     -0.2864
     87  CB        41.3100   -1.2100   26.2700 C.3   140  ASP140      0.1436
     88  CG        42.6810   -0.6330   26.5790 C.2   140  ASP140      0.3671
     89  OD1       43.1950   -0.8500   27.6970 O.co2 140  ASP140     -0.2456
     90  OD2       43.2480    0.0470   25.6940 O.co2 140  ASP140     -0.2456
     91  N         41.1380    2.0210   31.8590 N.3   144  ARG144     -0.1245
     92  CA        41.6750    3.0900   31.0170 C.3   144  ARG144      0.1563
     93  C         40.6140    4.1350   30.7220 C.2   144  ARG144      0.2260
     94  O         39.4460    3.8070   30.5250 O.2   144  ARG144     -0.2867
     95  CB        42.1670    2.5640   29.6720 C.3   144  ARG144      0.0307
     96  CG        43.5490    1.9940   29.6710 C.3   144  ARG144      0.0489
     97  CD        44.1440    2.1120   28.2810 C.3   144  ARG144      0.2205
     98  NE        45.2740    1.2130   28.1200 N.pl3 144  ARG144     -0.0865
     99  CZ        46.4040    1.3040   28.8120 C.cat 144  ARG144      0.5346
    100  NH1       46.5560    2.2670   29.7140 N.pl3 144  ARG144      0.1354
    101  NH2       47.3730    0.4220   28.6090 N.pl3 144  ARG144      0.1354
    102  N         38.6250    6.5960   28.4120 N.3   146  TYR146     -0.1241
    103  CA        38.3120    6.8080   27.0070 C.3   146  TYR146      0.1605
    104  C         37.1010    7.7330   26.9450 C.2   146  TYR146      0.2264
    105  O         36.3860    7.8960   27.9340 O.2   146  TYR146     -0.2867
    106  CB        38.0260    5.4830   26.2960 C.3   146  TYR146      0.0534
    107  CG        39.2820    4.7370   25.9070 C.ar  146  TYR146     -0.0201
    108  CD1       39.4590    3.4010   26.2530 C.ar  146  TYR146     -0.0009
    109  CD2       40.3040    5.3770   25.2030 C.ar  146  TYR146     -0.0009
    110  CE1       40.6280    2.7170   25.9110 C.ar  146  TYR146      0.0417
    111  CE2       41.4790    4.7030   24.8550 C.ar  146  TYR146      0.0417
    112  CZ        41.6330    3.3740   25.2150 C.ar  146  TYR146      0.1957
    113  OH        42.7910    2.7080   24.8830 O.3   146  TYR146     -0.2866
@<TRIPOS>BOND
     1     3     2    1
     2     3     4    2
     3     2     1    1
     4     2     5    1
     5     6     5    1
     6     6     7    1
     7     9     8    1
     8     8     7    1
     9    66    64    1
    10    63    62    2
    11    62    61    1
    12    64    61    1
    13    64    65    1
    14    13    12    2
    15    10    11    1
    16    61    60    1
    17    12    11    1
    18    14    11    1
    19    14    15    1
    20    15    16    1
    21    67    68    1
    22    18    16   am
    23    16    17    2
    24    68    71    1
    25    68    69    1
    26    53    52    2
    27    71    72    1
    28    52    51    1
    29    73    72    2
    30    72    74   am
    31    69    70    2
    32    69    75   am
    33    58    56   ar
    34    58    59   ar
    35    56    55   ar
    36    23    24    1
    37    23    20    1
    38    26    24   ar
    39    19    20    1
    40    75    76    1
    41    51    50    1
    42    51    54    1
    43    24    25   ar
    44    59    57   ar
    45    20    21    1
    46    55    54    1
    47    55    57   ar
    48    81    80   ar
    49    76    79    1
    50    76    77    1
    51    80    79    1
    52    80    82   ar
    53    78    77    2
    54    21    22    2
    55    77    83   am
    56   111   109   ar
    57   111   112   ar
    58   113   112    1
    59   109   107   ar
    60   112   110   ar
    61    48    47   ar
    62    90    88   ar
    63    83    84    1
    64   107   108   ar
    65   107   106    1
    66   110   108   ar
    67    87    88    1
    68    87    84    1
    69   106   103    1
    70    31    32    1
    71    31    28    1
    72    33    32   ar
    73    33    35   ar
    74    49    47   ar
    75    32    34   ar
    76    35    36   ar
    77    47    46    1
    78    34    36   ar
    79    34    37   ar
    80    36    38   ar
    81    88    89   ar
    82    84    85    1
    83    37    39   ar
    84    38    40   ar
    85    39    40   ar
    86    27    28    1
    87   104   103    1
    88   104   105    2
    89   103   102    1
    90    28    29    1
    91    45    46    1
    92    45    42    1
    93    44    43    2
    94    85    86    2
    95    98    97    1
    96    98    99    2
    97    97    96    1
    98   101    99    1
    99    29    30    2
   100    43    42    1
   101    99   100    1
   102    42    41    1
   103    96    95    1
   104    95    92    1
   105    94    93    2
   106    93    92    1
   107    92    91    1
