@<TRIPOS>MOLECULE
tmp/1fipB00.pdb
 89 83 0 0 0
SMALL
GASTEIGER

@<TRIPOS>ATOM
      1  N          4.2670   12.3400   52.7870 N.3     5  SER5       -0.1217
      2  CA         5.2370   13.3310   53.2070 C.3     5  SER5        0.1889
      3  C          5.2420   14.4760   52.2030 C.2     5  SER5        0.2288
      4  O          5.4130   15.6430   52.5700 O.2     5  SER5       -0.2866
      5  CB         6.5680   12.5810   53.3190 C.3     5  SER5        0.2089
      6  OG         6.3110   11.2580   53.8230 O.3     5  SER5       -0.2183
      7  N          2.0590   16.5060   53.1160 N.3     8  GLN8       -0.1231
      8  CA         2.2260   17.3080   54.3050 C.3     8  GLN8        0.1698
      9  C          3.1300   18.4880   54.0140 C.2     8  GLN8        0.2592
     10  O          2.8130   19.6080   54.4190 O.2     8  GLN8       -0.2718
     11  CB         2.7840   16.4050   55.4200 C.3     8  GLN8        0.0381
     12  CG         2.9220   17.0590   56.8040 C.3     8  GLN8        0.0905
     13  CD         1.6060   17.5850   57.3850 C.2     8  GLN8        0.2608
     14  OE1        1.4520   18.7650   57.7670 O.2     8  GLN8       -0.2717
     15  NE2        0.5780   16.7410   57.4620 N.am    8  GLN8       -0.0878
     16  N          4.1890   18.2820   53.2390 N.am    9  ALA9       -0.1966
     17  CA         5.0830   19.3430   52.8340 C.3     9  ALA9        0.1728
     18  C          4.3910   20.4030   51.9880 C.2     9  ALA9        0.2616
     19  O          4.7270   21.5860   52.1150 O.2     9  ALA9       -0.2715
     20  CB         6.2470   18.7780   52.0250 C.3     9  ALA9        0.0334
     21  N          3.4590   20.0390   51.1040 N.am   10  LEU10      -0.1977
     22  CA         2.7480   21.0150   50.2840 C.3    10  LEU10       0.1596
     23  C          1.6940   21.7490   51.1190 C.2    10  LEU10       0.2287
     24  O          1.5020   22.9590   50.9820 O.2    10  LEU10      -0.2864
     25  CB         2.0420   20.3540   49.0620 C.3    10  LEU10       0.0297
     26  CG         2.5470   20.4320   47.5860 C.3    10  LEU10       0.0022
     27  CD1        3.7960   21.2810   47.4140 C.3    10  LEU10       0.0001
     28  CD2        2.8350   19.0080   47.1350 C.3    10  LEU10       0.0001
     29  N          1.8620   22.4280   54.2850 N.3    12  ASN12      -0.1225
     30  CA         2.5800   23.4380   55.0630 C.3    12  ASN12       0.1785
     31  C          3.0500   24.5670   54.1910 C.2    12  ASN12       0.2597
     32  O          2.9640   25.7150   54.5940 O.2    12  ASN12      -0.2718
     33  CB         3.8300   22.9320   55.7240 C.3    12  ASN12       0.1169
     34  CG         3.6110   21.8590   56.7680 C.2    12  ASN12       0.2627
     35  OD1        4.4760   21.6330   57.5930 O.2    12  ASN12      -0.2716
     36  ND2        2.5760   21.0400   56.8260 N.am   12  ASN12      -0.0877
     37  N          3.5390   24.3020   52.9850 N.am   13  TYR13      -0.1976
     38  CA         3.9330   25.3580   52.0690 C.3    13  TYR13       0.1639
     39  C          2.7150   26.2540   51.7230 C.2    13  TYR13       0.2290
     40  O          2.8090   27.4840   51.8490 O.2    13  TYR13      -0.2864
     41  CB         4.5350   24.6830   50.8340 C.3    13  TYR13       0.0560
     42  CG         4.9720   25.6650   49.7770 C.ar   13  TYR13      -0.0198
     43  CD1        6.0900   26.4490   49.9680 C.ar   13  TYR13      -0.0009
     44  CD2        4.2240   25.7650   48.6290 C.ar   13  TYR13      -0.0009
     45  CE1        6.4580   27.3600   48.9940 C.ar   13  TYR13       0.0417
     46  CE2        4.5810   26.6670   47.6610 C.ar   13  TYR13       0.0417
     47  CZ         5.6910   27.4590   47.8530 C.ar   13  TYR13       0.1957
     48  OH         5.9860   28.3770   46.8790 O.3    13  TYR13      -0.2866
     49  N          1.8470   28.7800   54.1970 N.3    16  GLN16      -0.1245
     50  CA         2.7110   29.9560   54.1700 C.3    16  GLN16       0.1566
     51  C          2.3500   30.9700   53.0930 C.2    16  GLN16       0.2260
     52  O          2.7920   32.1230   53.1260 O.2    16  GLN16      -0.2867
     53  CB         4.1560   29.5240   53.9710 C.3    16  GLN16       0.0367
     54  CG         4.8080   29.0990   55.2970 C.3    16  GLN16       0.0905
     55  CD         4.1210   27.9700   56.0890 C.2    16  GLN16       0.2608
     56  OE1        3.0600   28.1050   56.7130 O.2    16  GLN16      -0.2717
     57  NE2        4.7320   26.7920   56.1220 N.am   16  GLN16      -0.0878
     58  N          5.9160   25.8930   41.2890 N.3    25  LEU25      -0.1245
     59  CA         5.8470   24.7800   42.2090 C.3    25  LEU25       0.1561
     60  C          6.3020   23.4350   41.6310 C.2    25  LEU25       0.2260
     61  O          6.9620   22.7150   42.3760 O.2    25  LEU25      -0.2867
     62  CB         4.4230   24.6680   42.7320 C.3    25  LEU25       0.0270
     63  CG         4.1290   23.8660   43.9720 C.3    25  LEU25       0.0019
     64  CD1        5.0520   24.1670   45.1450 C.3    25  LEU25       0.0001
     65  CD2        2.7120   24.1900   44.3220 C.3    25  LEU25       0.0001
     66  N         10.0690   23.4050   41.9580 N.3    28  LEU28      -0.1231
     67  CA        10.5330   23.2880   43.3160 C.3    28  LEU28       0.1693
     68  C         10.4990   21.8750   43.8430 C.2    28  LEU28       0.2591
     69  O         11.4430   21.5150   44.5540 O.2    28  LEU28      -0.2718
     70  CB         9.7260   24.0640   44.3670 C.3    28  LEU28       0.0284
     71  CG         9.6120   25.5590   44.4600 C.3    28  LEU28       0.0019
     72  CD1        8.7970   25.8660   45.7090 C.3    28  LEU28       0.0001
     73  CD2       10.9720   26.2170   44.5570 C.3    28  LEU28       0.0001
     74  N          9.4400   21.0860   43.5620 N.am   29  VAL29      -0.1980
     75  CA         9.3090   19.7460   44.1300 C.3    29  VAL29       0.1595
     76  C         10.2520   18.7770   43.4030 C.2    29  VAL29       0.2287
     77  O         11.0060   18.0210   44.0270 O.2    29  VAL29      -0.2864
     78  CB         7.7950   19.2740   44.0460 C.3    29  VAL29       0.0276
     79  CG1        7.5720   17.8660   44.5790 C.3    29  VAL29       0.0022
     80  CG2        6.9740   20.0980   45.0230 C.3    29  VAL29       0.0022
     81  N         13.9410   19.1940   44.4540 N.3    32  GLU32      -0.1245
     82  CA        14.0990   18.6450   45.7810 C.3    32  GLU32       0.1567
     83  C         14.1190   17.1060   45.7530 C.2    32  GLU32       0.2260
     84  O         14.9290   16.4260   46.3940 O.2    32  GLU32      -0.2867
     85  CB        12.9520   19.2210   46.5640 C.3    32  GLU32       0.0388
     86  CG        12.8780   18.9750   48.0470 C.3    32  GLU32       0.1160
     87  CD        13.8340   19.7680   48.9410 C.2    32  GLU32       0.3649
     88  OE1       14.5970   20.5980   48.4180 O.co2  32  GLU32      -0.2457
     89  OE2       13.7910   19.5410   50.1770 O.co2  32  GLU32      -0.2457
@<TRIPOS>BOND
     1    58    59    1
     2    60    59    1
     3    60    61    2
     4    66    67    1
     5    59    62    1
     6    62    63    1
     7    67    68    1
     8    67    70    1
     9    76    77    2
    10    76    75    1
    11    74    68   am
    12    74    75    1
    13    68    69    2
    14    63    65    1
    15    63    64    1
    16    78    75    1
    17    78    79    1
    18    78    80    1
    19    70    71    1
    20    81    82    1
    21    71    73    1
    22    71    72    1
    23    83    82    1
    24    83    84    2
    25    82    85    1
    26    85    86    1
    27    48    47    1
    28    28    26    1
    29    27    26    1
    30    26    25    1
    31    46    47   ar
    32    46    44   ar
    33    47    45   ar
    34    86    87    1
    35    88    87   ar
    36    44    42   ar
    37    87    89   ar
    38    45    43   ar
    39    25    22    1
    40    42    43   ar
    41    42    41    1
    42    22    21    1
    43    22    23    1
    44    41    38    1
    45    24    23    2
    46    21    18   am
    47    39    40    2
    48    39    38    1
    49    18    19    2
    50    18    17    1
    51    20    17    1
    52    38    37    1
    53     3     4    2
    54     3     2    1
    55     1     2    1
    56    17    16    1
    57    37    31   am
    58    51    52    2
    59    51    50    1
    60     7     8    1
    61     2     5    1
    62    16     9   am
    63     5     6    1
    64    53    50    1
    65    53    54    1
    66     9     8    1
    67     9    10    2
    68    50    49    1
    69    31    32    2
    70    31    30    1
    71    29    30    1
    72     8    11    1
    73    30    33    1
    74    54    55    1
    75    11    12    1
    76    33    34    1
    77    55    57   am
    78    55    56    2
    79    34    36   am
    80    34    35    2
    81    12    13    1
    82    13    15   am
    83    13    14    2
