@<TRIPOS>MOLECULE
tmp/1fiqC01.pdb
 104 97 0 0 0
SMALL
GASTEIGER

@<TRIPOS>ATOM
      1  N         21.9120   20.0940  113.5560 N.3   232  GLU232     -0.1245
      2  CA        21.6680   18.8160  114.2050 C.3   232  GLU232      0.1567
      3  C         21.7000   18.9560  115.7320 C.2   232  GLU232      0.2260
      4  O         21.0850   18.1690  116.4380 O.2   232  GLU232     -0.2867
      5  CB        22.6930   17.7720  113.7820 C.3   232  GLU232      0.0388
      6  CG        22.4740   16.4540  114.5040 C.3   232  GLU232      0.1160
      7  CD        23.4560   15.3720  114.1120 C.2   232  GLU232      0.3649
      8  OE1       23.3060   14.2450  114.6240 O.co2 232  GLU232     -0.2457
      9  OE2       24.3700   15.6370  113.3030 O.co2 232  GLU232     -0.2457
     10  N         29.3430   16.5580  119.2200 N.3   303  LEU303     -0.1245
     11  CA        29.4910   15.3310  118.4380 C.3   303  LEU303      0.1561
     12  C         30.9360   14.9940  118.0700 C.2   303  LEU303      0.2260
     13  O         31.2000   14.0300  117.3470 O.2   303  LEU303     -0.2867
     14  CB        28.6300   15.4420  117.1780 C.3   303  LEU303      0.0270
     15  CG        27.1180   15.4760  117.4630 C.3   303  LEU303      0.0019
     16  CD1       26.3770   16.2570  116.3840 C.3   303  LEU303      0.0001
     17  CD2       26.5950   14.0390  117.5720 C.3   303  LEU303      0.0001
     18  N         31.9730   11.1150  118.2070 N.3   306  SER306     -0.1217
     19  CA        31.4690   10.2920  117.1040 C.3   306  SER306      0.1889
     20  C         32.0740   10.7090  115.7660 C.2   306  SER306      0.2288
     21  O         32.1780    9.9070  114.8390 O.2   306  SER306     -0.2866
     22  CB        29.9400   10.3870  117.0260 C.3   306  SER306      0.2089
     23  OG        29.3440    9.9540  118.2350 O.3   306  SER306     -0.2183
     24  N         34.1120    8.3800  112.9970 N.3   310  ARG310     -0.1245
     25  CA        33.8350    8.2270  111.5650 C.3   310  ARG310      0.1563
     26  C         35.1290    8.4740  110.7890 C.2   310  ARG310      0.2260
     27  O         35.3920    7.8320  109.7720 O.2   310  ARG310     -0.2867
     28  CB        32.7420    9.2030  111.1020 C.3   310  ARG310      0.0307
     29  CG        32.3790    9.0640  109.6310 C.3   310  ARG310      0.0489
     30  CD        31.0230    9.6920  109.3370 C.3   310  ARG310      0.2205
     31  NE        29.9070    8.8600  109.7830 N.pl3 310  ARG310     -0.0865
     32  CZ        29.4640    7.7830  109.1370 C.cat 310  ARG310      0.5346
     33  NH1       30.0360    7.4010  108.0070 N.pl3 310  ARG310      0.1354
     34  NH2       28.4520    7.0770  109.6310 N.pl3 310  ARG310      0.1354
     35  N         30.7020   14.4140  108.3720 N.3   344  PHE344     -0.1241
     36  CA        30.9000   13.9500  109.7300 C.3   344  PHE344      0.1605
     37  C         32.2480   13.2560  109.9290 C.2   344  PHE344      0.2264
     38  O         32.2990   12.0610  110.2300 O.2   344  PHE344     -0.2867
     39  CB        29.7710   12.9880  110.0920 C.3   344  PHE344      0.0534
     40  CG        29.4240   12.9850  111.5420 C.ar  344  PHE344     -0.0203
     41  CD1       28.7460   14.0580  112.1050 C.ar  344  PHE344     -0.0042
     42  CD2       29.7790   11.9140  112.3500 C.ar  344  PHE344     -0.0042
     43  CE1       28.4240   14.0650  113.4560 C.ar  344  PHE344     -0.0003
     44  CE2       29.4640   11.9100  113.7020 C.ar  344  PHE344     -0.0003
     45  CZ        28.7840   12.9870  114.2570 C.ar  344  PHE344     -0.0000
     46  N         24.4160    5.5150  111.4340 N.3   439  PHE439     -0.1227
     47  CA        24.8950    6.2250  112.6150 C.3   439  PHE439      0.1736
     48  C         25.9100    5.2960  113.2750 C.2   439  PHE439      0.2596
     49  O         25.6830    4.0920  113.3620 O.2   439  PHE439     -0.2718
     50  CB        23.7680    6.4800  113.6280 C.3   439  PHE439      0.0547
     51  CG        22.8440    7.6070  113.2650 C.ar  439  PHE439     -0.0202
     52  CD1       21.7380    7.3890  112.4490 C.ar  439  PHE439     -0.0042
     53  CD2       23.0700    8.8890  113.7570 C.ar  439  PHE439     -0.0042
     54  CE1       20.8730    8.4300  112.1330 C.ar  439  PHE439     -0.0003
     55  CE2       22.2120    9.9330  113.4450 C.ar  439  PHE439     -0.0003
     56  CZ        21.1130    9.7040  112.6320 C.ar  439  PHE439     -0.0000
     57  N         27.0280    5.8380  113.7370 N.am  440  THR440     -0.1939
     58  CA        28.0120    4.9970  114.3960 C.3   440  THR440      0.2028
     59  C         27.5430    4.6660  115.8140 C.2   440  THR440      0.2642
     60  O         28.1090    3.7980  116.4750 O.2   440  THR440     -0.2714
     61  CB        29.3870    5.6750  114.4320 C.3   440  THR440      0.1808
     62  OG1       29.2500    7.0200  114.8990 O.3   440  THR440     -0.2208
     63  CG2       29.9990    5.6740  113.0500 C.3   440  THR440      0.0379
     64  N         26.5080    5.3720  116.2690 N.am  441  VAL441     -0.1977
     65  CA        25.9100    5.1360  117.5850 C.3   441  VAL441      0.1596
     66  C         24.6730    4.2790  117.3200 C.2   441  VAL441      0.2287
     67  O         23.6250    4.7880  116.9390 O.2   441  VAL441     -0.2864
     68  CB        25.4640    6.4450  118.2660 C.3   441  VAL441      0.0276
     69  CG1       24.7310    6.1300  119.5660 C.3   441  VAL441      0.0022
     70  CG2       26.6700    7.3280  118.5450 C.3   441  VAL441      0.0022
     71  N         20.6210    5.1020  117.3380 N.3   444  LEU444     -0.1245
     72  CA        20.0070    6.1510  116.5390 C.3   444  LEU444      0.1561
     73  C         19.4420    5.5820  115.2560 C.2   444  LEU444      0.2260
     74  O         18.6840    6.2390  114.5520 O.2   444  LEU444     -0.2867
     75  CB        21.0180    7.2430  116.2150 C.3   444  LEU444      0.0270
     76  CG        21.5610    7.9400  117.4550 C.3   444  LEU444      0.0019
     77  CD1       22.5900    8.9830  117.0500 C.3   444  LEU444      0.0001
     78  CD2       20.4120    8.5830  118.2040 C.3   444  LEU444      0.0001
     79  N         18.0630   12.6250  115.0410 N.3   506  PRO506     -0.2116
     80  CA        18.1520   13.8020  114.1850 C.3   506  PRO506      0.1372
     81  C         18.1860   13.3680  112.7240 C.2   506  PRO506      0.2244
     82  O         18.6990   12.2940  112.4040 O.2   506  PRO506     -0.2868
     83  CB        19.4600   14.4440  114.6310 C.3   506  PRO506      0.0268
     84  CG        20.3000   13.2460  114.9970 C.3   506  PRO506      0.0207
     85  CD        19.3200   12.3960  115.7750 C.3   506  PRO506      0.0892
     86  N         19.8490   12.8950  109.9460 N.3   508  ALA508     -0.1231
     87  CA        21.2760   12.9540  109.6410 C.3   508  ALA508      0.1694
     88  C         21.8880   11.6330  109.1850 C.2   508  ALA508      0.2591
     89  O         21.1880   10.6460  108.9630 O.2   508  ALA508     -0.2718
     90  CB        22.0340   13.4750  110.8640 C.3   508  ALA508      0.0304
     91  N         23.2130   11.6390  109.0510 N.am  509  ALA509     -0.1980
     92  CA        23.9830   10.4750  108.6210 C.3   509  ALA509      0.1597
     93  C         23.4800    9.8430  107.3200 C.2   509  ALA509      0.2287
     94  O         23.6810    8.6540  107.0910 O.2   509  ALA509     -0.2864
     95  CB        24.0210    9.4290  109.7430 C.3   509  ALA509      0.0319
     96  N         25.6580   12.4390  102.0120 N.3   691  GLU691     -0.1245
     97  CA        27.0460   12.8020  102.3330 C.3   691  GLU691      0.1567
     98  C         28.1840   12.2060  101.4990 C.2   691  GLU691      0.2260
     99  O         29.1840   12.8680  101.2570 O.2   691  GLU691     -0.2867
    100  CB        27.3300   12.4760  103.7970 C.3   691  GLU691      0.0388
    101  CG        26.5600   13.3040  104.7940 C.3   691  GLU691      0.1160
    102  CD        26.4870   12.6190  106.1330 C.2   691  GLU691      0.3649
    103  OE1       25.8560   11.5450  106.1930 O.co2 691  GLU691     -0.2457
    104  OE2       27.0620   13.1400  107.1140 O.co2 691  GLU691     -0.2457
@<TRIPOS>BOND
     1    99    98    2
     2    98    97    1
     3    96    97    1
     4    97   100    1
     5   100   101    1
     6   101   102    1
     7   102   103   ar
     8   102   104   ar
     9    94    93    2
    10    93    92    1
    11    33    32    1
    12    35    36    1
    13    92    91    1
    14    92    95    1
    15    89    88    2
    16    91    88   am
    17    32    34    1
    18    32    31    2
    19    88    87    1
    20    30    29    1
    21    30    31    1
    22    29    28    1
    23    87    86    1
    24    87    90    1
    25    36    37    1
    26    36    39    1
    27    27    26    2
    28    37    38    2
    29    39    40    1
    30    26    25    1
    31    28    25    1
    32    46    47    1
    33    40    41   ar
    34    40    42   ar
    35    25    24    1
    36    41    43   ar
    37    54    52   ar
    38    54    56   ar
    39    42    44   ar
    40    82    81    2
    41    52    51   ar
    42    47    48    1
    43    47    50    1
    44    56    55   ar
    45    81    80    1
    46    63    61    1
    47    51    50    1
    48    51    53   ar
    49    48    49    2
    50    48    57   am
    51     9     7   ar
    52    55    53   ar
    53    43    45   ar
    54     1     2    1
    55    44    45   ar
    56    57    58    1
    57     5     2    1
    58     5     6    1
    59     7     6    1
    60     7     8   ar
    61    80    83    1
    62    80    79    1
    63     2     3    1
    64    58    61    1
    65    58    59    1
    66    61    62    1
    67    74    73    2
    68    83    84    1
    69    21    20    2
    70    84    85    1
    71    79    85    1
    72    73    72    1
    73     3     4    2
    74    20    19    1
    75    59    64   am
    76    59    60    2
    77    75    72    1
    78    75    76    1
    79    64    65    1
    80    16    15    1
    81    72    71    1
    82    67    66    2
    83    22    19    1
    84    22    23    1
    85    77    76    1
    86    19    18    1
    87    14    15    1
    88    14    11    1
    89    66    65    1
    90    13    12    2
    91    76    78    1
    92    15    17    1
    93    65    68    1
    94    12    11    1
    95    68    70    1
    96    68    69    1
    97    11    10    1
