@<TRIPOS>MOLECULE
tmp/1fiwA00.pdb
 70 66 0 0 0
SMALL
GASTEIGER

@<TRIPOS>ATOM
      1  N         68.4710   54.6220   39.4400 N.3   165  LEU165     -0.1231
      2  CA        67.4320   55.1410   38.5920 C.3   165  LEU165      0.1693
      3  C         67.7420   55.0010   37.0950 C.2   165  LEU165      0.2592
      4  O         66.8370   54.8080   36.3320 O.2   165  LEU165     -0.2718
      5  CB        67.1400   56.6400   38.8770 C.3   165  LEU165      0.0284
      6  CG        66.5430   57.0660   40.2350 C.3   165  LEU165      0.0019
      7  CD1       66.0180   58.5320   40.1740 C.3   165  LEU165      0.0001
      8  CD2       65.4310   56.1170   40.6400 C.3   165  LEU165      0.0001
      9  N         69.0080   55.0780   36.6800 N.am  166  GLY166     -0.1957
     10  CA        69.3170   55.0140   35.2340 C.3   166  GLY166      0.1869
     11  C         68.9740   53.6210   34.6990 C.2   166  GLY166      0.2309
     12  O         68.4200   53.4880   33.5750 O.2   166  GLY166     -0.2863
     13  N         65.2240   53.2030   34.6620 N.3   169  ASN169     -0.1225
     14  CA        64.5720   53.9880   33.6310 C.3   169  ASN169      0.1785
     15  C         64.9720   53.5390   32.2170 C.2   169  ASN169      0.2598
     16  O         64.5390   54.1430   31.2490 O.2   169  ASN169     -0.2718
     17  CB        65.0220   55.4260   33.7710 C.3   169  ASN169      0.1169
     18  CG        64.0970   56.4300   33.1050 C.2   169  ASN169      0.2627
     19  OD1       62.8650   56.2380   33.0030 O.2   169  ASN169     -0.2716
     20  ND2       64.6980   57.5560   32.7230 N.am  169  ASN169     -0.0877
     21  N         65.7710   52.4910   32.1120 N.am  170  SER170     -0.1938
     22  CA        66.3860   52.1770   30.8250 C.3   170  SER170      0.2055
     23  C         65.4080   51.4640   29.8750 C.2   170  SER170      0.2643
     24  O         64.2590   51.1270   30.2220 O.2   170  SER170     -0.2714
     25  CB        67.7070   51.4020   30.9950 C.3   170  SER170      0.2130
     26  OG        67.4360   50.1250   31.5310 O.3   170  SER170     -0.2179
     27  N         65.8900   51.2580   28.6640 N.am  171  THR171     -0.1950
     28  CA        65.0870   50.7030   27.5980 C.3   171  THR171      0.1897
     29  C         64.3420   49.3970   27.8890 C.2   171  THR171      0.2313
     30  O         63.1530   49.2490   27.5920 O.2   171  THR171     -0.2863
     31  CB        65.9430   50.5460   26.3430 C.3   171  THR171      0.1794
     32  OG1       65.8840   51.8180   25.6920 O.3   171  THR171     -0.2208
     33  CG2       65.2390   49.5980   25.3860 C.3   171  THR171      0.0378
     34  N         61.7800   52.2250   30.8130 N.3   175  ASN175     -0.1225
     35  CA        62.0290   52.9030   29.5270 C.3   175  ASN175      0.1785
     36  C         61.4820   54.2990   29.4260 C.2   175  ASN175      0.2597
     37  O         60.6980   54.5760   28.5170 O.2   175  ASN175     -0.2718
     38  CB        61.4940   51.9430   28.3990 C.3   175  ASN175      0.1169
     39  CG        61.4510   52.5580   26.9660 C.2   175  ASN175      0.2627
     40  OD1       60.4860   52.3360   26.2260 O.2   175  ASN175     -0.2716
     41  ND2       62.4730   53.2910   26.6040 N.am  175  ASN175     -0.0877
     42  N         61.8680   55.1850   30.3630 N.am  176  GLY176     -0.1957
     43  CA        61.4620   56.5680   30.3350 C.3   176  GLY176      0.1869
     44  C         60.4450   57.0460   31.3560 C.2   176  GLY176      0.2309
     45  O         60.3200   58.2270   31.5920 O.2   176  GLY176     -0.2863
     46  N         60.4660   56.7300   34.7590 N.3   178  ILE178     -0.1231
     47  CA        60.9760   56.9780   36.0740 C.3   178  ILE178      0.1692
     48  C         61.3870   58.4780   36.1710 C.2   178  ILE178      0.2592
     49  O         62.0330   59.0520   35.2660 O.2   178  ILE178     -0.2718
     50  CB        62.1930   56.0390   36.3440 C.3   178  ILE178      0.0266
     51  CG1       61.7920   54.5930   36.0830 C.3   178  ILE178      0.0019
     52  CG2       62.7800   56.2770   37.7660 C.3   178  ILE178      0.0020
     53  CD1       60.5560   54.1370   36.8960 C.3   178  ILE178      0.0001
     54  N         61.0010   59.0920   37.2810 N.am  179  ARG179     -0.1966
     55  CA        61.3850   60.4950   37.6070 C.3   179  ARG179      0.1729
     56  C         62.4670   60.5640   38.6790 C.2   179  ARG179      0.2616
     57  O         62.7450   59.5690   39.4330 O.2   179  ARG179     -0.2715
     58  CB        60.1590   61.2680   38.0930 C.3   179  ARG179      0.0348
     59  CG        58.9770   61.0400   37.2280 C.3   179  ARG179      0.0492
     60  CD        57.6620   61.6220   37.7840 C.3   179  ARG179      0.2205
     61  NE        57.7200   63.0840   37.8050 N.pl3 179  ARG179     -0.0865
     62  CZ        57.4370   63.8390   36.7420 C.cat 179  ARG179      0.5346
     63  NH1       57.0830   63.2560   35.5930 N.pl3 179  ARG179      0.1354
     64  NH2       57.4890   65.1520   36.8370 N.pl3 179  ARG179      0.1354
     65  N         63.1230   61.7260   38.7220 N.am  180  SER180     -0.1950
     66  CA        64.2280   61.9350   39.6400 C.3   180  SER180      0.1924
     67  C         63.7450   61.9730   41.1040 C.2   180  SER180      0.2314
     68  O         64.5720   62.0620   42.0200 O.2   180  SER180     -0.2863
     69  CB        64.9980   63.2640   39.2990 C.3   180  SER180      0.2116
     70  OG        64.1020   64.3790   39.3430 O.3   180  SER180     -0.2180
@<TRIPOS>BOND
     1    33    31    1
     2    32    31    1
     3    40    39    2
     4    31    28    1
     5    41    39   am
     6    39    38    1
     7    30    29    2
     8    28    29    1
     9    28    27    1
    10    38    35    1
    11    37    36    2
    12    27    23   am
    13    36    35    1
    14    36    42   am
    15    35    34    1
    16    23    24    2
    17    23    22    1
    18    43    42    1
    19    43    44    1
    20    22    25    1
    21    22    21    1
    22    25    26    1
    23    16    15    2
    24    44    45    2
    25    21    15   am
    26    15    14    1
    27    20    18   am
    28    19    18    2
    29    18    17    1
    30    12    11    2
    31    14    17    1
    32    14    13    1
    33    11    10    1
    34    46    47    1
    35    10     9    1
    36    49    48    2
    37    63    62    1
    38    47    48    1
    39    47    50    1
    40    51    50    1
    41    51    53    1
    42    48    54   am
    43     4     3    2
    44    50    52    1
    45     9     3   am
    46    62    64    1
    47    62    61    2
    48     3     2    1
    49    59    60    1
    50    59    58    1
    51    54    55    1
    52    55    58    1
    53    55    56    1
    54    60    61    1
    55     2     5    1
    56     2     1    1
    57    56    65   am
    58    56    57    2
    59    65    66    1
    60     5     6    1
    61    69    70    1
    62    69    66    1
    63    66    67    1
    64     7     6    1
    65     6     8    1
    66    67    68    2
