@<TRIPOS>MOLECULE
tmp/1fizA00.pdb
 220 225 0 0 0
SMALL
GASTEIGER

@<TRIPOS>ATOM
      1  N        129.2500   46.9120   52.4560 N.3     8  GLU8       -0.1231
      2  CA       130.0760   47.4810   51.4260 C.3     8  GLU8        0.1684
      3  C        129.8020   46.8300   50.0830 C.2     8  GLU8        0.2434
      4  O        129.6740   45.5850   49.9280 O.2     8  GLU8       -0.2733
      5  CB       131.5700   47.3970   51.7780 C.3     8  GLU8        0.0402
      6  CG       131.9230   47.4940   53.2560 C.3     8  GLU8        0.1161
      7  CD       133.4360   47.4710   53.5220 C.2     8  GLU8        0.3649
      8  OE1      134.0830   46.3960   53.2540 O.co2   8  GLU8       -0.2457
      9  OE2      133.9730   48.5280   54.0170 O.co2   8  GLU8       -0.2457
     10  N        129.7830   47.6940   49.0810 N.am    9  PRO9       -0.2718
     11  CA       129.5300   47.2710   47.6880 C.3     9  PRO9        0.1535
     12  C        130.2070   45.9530   47.3590 C.2     9  PRO9        0.2599
     13  O        131.3850   45.8140   47.5840 O.2     9  PRO9       -0.2715
     14  CB       130.1270   48.4040   46.8830 C.3     9  PRO9        0.0310
     15  CG       129.8000   49.5520   47.7340 C.3     9  PRO9        0.0237
     16  CD       130.0520   49.1360   49.1840 C.3     9  PRO9        0.0939
     17  N        129.4500   45.0270   46.8150 N.am   10  GLY10      -0.1941
     18  CA       129.9380   43.7120   46.4650 C.3    10  GLY10       0.2014
     19  C        130.0190   42.7250   47.6440 C.2    10  GLY10       0.2639
     20  O        130.3660   41.5450   47.4940 O.2    10  GLY10      -0.2714
     21  N        129.7390   43.2340   48.8460 N.am   11  ALA11      -0.1963
     22  CA       129.8240   42.3660   49.9970 C.3    11  ALA11       0.1728
     23  C        128.7860   41.2320   49.8720 C.2    11  ALA11       0.2616
     24  O        129.0600   40.1320   50.3250 O.2    11  ALA11      -0.2715
     25  CB       129.6720   43.1460   51.2610 C.3    11  ALA11       0.0334
     26  N        127.6000   41.4730   49.2930 N.am   12  TRP12      -0.1960
     27  CA       126.6360   40.3750   49.2330 C.3    12  TRP12       0.1756
     28  C        125.9530   40.3680   47.8930 C.2    12  TRP12       0.2462
     29  O        124.8290   40.6620   47.8090 O.2    12  TRP12      -0.2730
     30  CB       125.5910   40.5120   50.3420 C.3    12  TRP12       0.0590
     31  CG       126.1680   40.7090   51.7100 C.ar   12  TRP12       0.0006
     32  CD1      126.2730   41.8570   52.3630 C.ar   12  TRP12       0.0946
     33  CD2      126.6360   39.7030   52.6010 C.ar   12  TRP12       0.0152
     34  NE1      126.7940   41.6660   53.6170 N.ar   12  TRP12      -0.2442
     35  CE2      127.0400   40.3360   53.7690 C.ar   12  TRP12       0.0810
     36  CE3      126.7720   38.3320   52.5240 C.ar   12  TRP12       0.0012
     37  CZ2      127.5790   39.6560   54.8340 C.ar   12  TRP12       0.0191
     38  CZ3      127.3170   37.6600   53.6050 C.ar   12  TRP12       0.0001
     39  CH2      127.6850   38.3300   54.7520 C.ar   12  TRP12       0.0015
     40  N        126.6290   39.9590   46.8510 N.am   13  PRO13      -0.2716
     41  CA       126.1270   39.9990   45.4660 C.3    13  PRO13       0.1536
     42  C        124.9130   39.1350   45.1280 C.2    13  PRO13       0.2598
     43  O        124.4970   39.1910   43.9740 O.2    13  PRO13      -0.2715
     44  CB       127.3030   39.4670   44.6770 C.3    13  PRO13       0.0310
     45  CG       127.9930   38.6140   45.6680 C.3    13  PRO13       0.0237
     46  CD       127.9550   39.3710   46.9620 C.3    13  PRO13       0.0939
     47  N        124.4170   38.3100   46.0500 N.am   14  TRP14      -0.1974
     48  CA       123.2130   37.5440   45.7820 C.3    14  TRP14       0.1640
     49  C        121.9670   38.2400   46.3670 C.2    14  TRP14       0.2290
     50  O        120.8390   37.7750   46.1680 O.2    14  TRP14      -0.2864
     51  CB       123.3620   36.1030   46.2570 C.3    14  TRP14       0.0576
     52  CG       123.7810   36.0140   47.6870 C.ar   14  TRP14       0.0006
     53  CD1      122.9950   36.2340   48.7880 C.ar   14  TRP14       0.0946
     54  CD2      125.0730   35.7330   48.1790 C.ar   14  TRP14       0.0152
     55  NE1      123.7280   36.0720   49.9250 N.ar   14  TRP14      -0.2442
     56  CE2      125.0150   35.7990   49.5780 C.ar   14  TRP14       0.0810
     57  CE3      126.3080   35.4700   47.5770 C.ar   14  TRP14       0.0012
     58  CZ2      126.1380   35.5820   50.3840 C.ar   14  TRP14       0.0191
     59  CZ3      127.3900   35.2650   48.3530 C.ar   14  TRP14       0.0001
     60  CH2      127.3090   35.3300   49.7440 C.ar   14  TRP14       0.0015
     61  N        119.5350   35.5030   44.9590 N.3    36  LEU36      -0.1231
     62  CA       119.8710   35.0830   43.6260 C.3    36  LEU36       0.1693
     63  C        120.4930   33.6670   43.5740 C.2    36  LEU36       0.2592
     64  O        121.5750   33.4320   44.0690 O.2    36  LEU36      -0.2718
     65  CB       120.8540   36.0630   43.0520 C.3    36  LEU36       0.0284
     66  CG       121.0700   35.7310   41.5620 C.3    36  LEU36       0.0019
     67  CD1      119.9430   36.3270   40.7720 C.3    36  LEU36       0.0001
     68  CD2      122.3740   36.1660   40.9260 C.3    36  LEU36       0.0001
     69  N        119.7510   32.7340   42.9820 N.am   37  LEU37      -0.1966
     70  CA       120.1690   31.3460   42.8130 C.3    37  LEU37       0.1728
     71  C        120.8610   31.2320   41.4790 C.2    37  LEU37       0.2616
     72  O        121.9690   30.7050   41.4020 O.2    37  LEU37      -0.2715
     73  CB       118.9980   30.4050   42.7830 C.3    37  LEU37       0.0311
     74  CG       118.3470   30.2660   44.1280 C.3    37  LEU37       0.0022
     75  CD1      117.4750   29.0230   44.1510 C.3    37  LEU37       0.0001
     76  CD2      119.4620   30.1590   45.0850 C.3    37  LEU37       0.0001
     77  N        120.2560   31.7010   40.4110 N.am   38  ASN38      -0.1958
     78  CA       121.0150   31.6880   39.1890 C.3    38  ASN38       0.1819
     79  C        120.5720   32.7440   38.2840 C.2    38  ASN38       0.2622
     80  O        119.8080   33.6140   38.6620 O.2    38  ASN38      -0.2715
     81  CB       120.9980   30.3500   38.4880 C.3    38  ASN38       0.1195
     82  CG       119.7110   30.0840   37.8610 C.2    38  ASN38       0.2630
     83  OD1      119.0710   31.0120   37.4290 O.2    38  ASN38      -0.2716
     84  ND2      119.2760   28.8180   37.8270 N.am   38  ASN38      -0.0877
     85  N        121.0670   32.6690   37.0700 N.am   39  SER39      -0.1950
     86  CA       120.7840   33.6710   36.0690 C.3    39  SER39       0.1924
     87  C        119.3350   33.9790   35.9640 C.2    39  SER39       0.2314
     88  O        118.9770   35.0300   35.4630 O.2    39  SER39      -0.2863
     89  CB       121.1590   33.1400   34.7110 C.3    39  SER39       0.2116
     90  OG       120.7490   34.0530   33.7250 O.3    39  SER39      -0.2180
     91  N        119.5800   37.8220   34.3150 N.3   111  VAL111     -0.1231
     92  CA       120.5210   38.7870   34.7040 C.3   111  VAL111      0.1678
     93  C        121.9270   38.2900   34.4690 C.2   111  VAL111      0.2434
     94  O        122.2310   37.1160   34.6110 O.2   111  VAL111     -0.2733
     95  CB       120.4460   39.0230   36.1860 C.3   111  VAL111      0.0265
     96  CG1      119.3260   39.8690   36.5420 C.3   111  VAL111      0.0020
     97  CG2      120.3420   37.8080   36.9290 C.3   111  VAL111      0.0020
     98  N        122.8180   39.1740   34.1200 N.am  112  PRO112     -0.2718
     99  CA       124.1900   38.8080   33.9350 C.3   112  PRO112      0.1535
    100  C        124.8980   38.9250   35.2210 C.2   112  PRO112      0.2599
    101  O        124.8310   39.9340   35.9060 O.2   112  PRO112     -0.2715
    102  CB       124.6410   39.8420   32.9260 C.3   112  PRO112      0.0310
    103  CG       123.9860   40.9510   33.3450 C.3   112  PRO112      0.0237
    104  CD       122.5910   40.5430   33.6700 C.3   112  PRO112      0.0939
    105  N        125.6150   37.8720   35.5620 N.am  113  CYS113     -0.1954
    106  CA       126.3940   37.8840   36.8160 C.3   113  CYS113      0.1843
    107  C        127.7420   38.5620   36.6480 C.2   113  CYS113      0.2626
    108  O        128.4780   38.1560   35.8020 O.2   113  CYS113     -0.2714
    109  CB       126.7120   36.4790   37.3090 C.3   113  CYS113      0.0997
    110  SG       125.4970   35.9060   38.4720 S.3   113  CYS113     -0.0797
    111  N        128.0870   39.5550   37.4660 N.am  114  GLY114     -0.1940
    112  CA       129.3640   40.2460   37.3730 C.3   114  GLY114      0.1998
    113  C        129.9850   40.5260   38.7250 C.2   114  GLY114      0.2481
    114  O        129.8560   39.7370   39.6300 O.2   114  GLY114     -0.2729
    115  N        130.6740   41.6370   38.8740 N.am  115  PRO115     -0.2715
    116  CA       131.3040   42.0390   40.1500 C.3   115  PRO115      0.1536
    117  C        130.3380   42.3480   41.2650 C.2   115  PRO115      0.2599
    118  O        130.7050   42.1850   42.4290 O.2   115  PRO115     -0.2715
    119  CB       132.0520   43.3280   39.7720 C.3   115  PRO115      0.0310
    120  CG       132.2530   43.1800   38.2770 C.3   115  PRO115      0.0237
    121  CD       130.9620   42.5890   37.7900 C.3   115  PRO115      0.0939
    122  N        129.1360   42.7840   40.9110 N.am  116  PHE116     -0.1960
    123  CA       128.1160   43.0160   41.9110 C.3   116  PHE116      0.1771
    124  C        126.9010   42.0800   41.8880 C.2   116  PHE116      0.2619
    125  O        125.9690   42.3870   42.5730 O.2   116  PHE116     -0.2715
    126  CB       127.6340   44.4590   41.8880 C.3   116  PHE116      0.0574
    127  CG       128.7300   45.4450   42.0340 C.ar  116  PHE116     -0.0200
    128  CD1      129.5770   45.7230   40.9490 C.ar  116  PHE116     -0.0042
    129  CD2      128.9410   46.0910   43.2320 C.ar  116  PHE116     -0.0042
    130  CE1      130.5960   46.6480   41.0600 C.ar  116  PHE116     -0.0003
    131  CE2      129.9460   47.0320   43.3390 C.ar  116  PHE116     -0.0003
    132  CZ       130.7800   47.3000   42.2720 C.ar  116  PHE116     -0.0000
    133  N        126.9170   40.9570   41.1740 N.am  117  ILE117     -0.1963
    134  CA       125.7740   40.0480   41.0940 C.3   117  ILE117      0.1727
    135  C        126.2660   38.6330   40.8580 C.2   117  ILE117      0.2617
    136  O        127.0050   38.4080   39.9130 O.2   117  ILE117     -0.2715
    137  CB       124.8460   40.5070   39.9780 C.3   117  ILE117      0.0290
    138  CG1      124.3220   41.8910   40.3510 C.3   117  ILE117      0.0022
    139  CG2      123.8060   39.4830   39.7490 C.3   117  ILE117      0.0023
    140  CD1      123.7080   42.6940   39.2410 C.3   117  ILE117      0.0001
    141  N        125.9380   37.7100   41.7640 N.am  118  GLY118     -0.1941
    142  CA       126.2840   36.3300   41.6000 C.3   118  GLY118      0.1998
    143  C        125.4730   35.5090   42.5350 C.2   118  GLY118      0.2481
    144  O        124.8710   36.0260   43.3930 O.2   118  GLY118     -0.2729
    145  N        125.4570   34.2290   42.3710 N.am  119  PRO119     -0.2715
    146  CA       124.6280   33.3620   43.1860 C.3   119  PRO119      0.1536
    147  C        125.0240   33.1640   44.6450 C.2   119  PRO119      0.2599
    148  O        126.0500   33.5790   44.9850 O.2   119  PRO119     -0.2715
    149  CB       124.7820   32.0550   42.4410 C.3   119  PRO119      0.0310
    150  CG       126.2070   32.1350   41.9900 C.3   119  PRO119      0.0237
    151  CD       126.2620   33.4860   41.3940 C.3   119  PRO119      0.0939
    152  N        124.2330   32.5370   45.4860 N.am  120  GLY120     -0.1941
    153  CA       124.5890   32.2300   46.8640 C.3   120  GLY120      0.2014
    154  C        124.6200   30.7230   46.9250 C.2   120  GLY120      0.2639
    155  O        124.3110   30.0960   45.9590 O.2   120  GLY120     -0.2714
    156  N        125.0180   30.0980   48.0070 N.am  121  CYS121     -0.1967
    157  CA       124.9760   28.6430   48.0140 C.3   121  CYS121      0.1712
    158  C        123.8850   28.1320   48.9270 C.2   121  CYS121      0.2296
    159  O        123.6380   28.7520   49.9460 O.2   121  CYS121     -0.2864
    160  CB       126.2300   28.1450   48.6720 C.3   121  CYS121      0.0983
    161  SG       127.7160   28.2300   47.6930 S.3   121  CYS121     -0.0798
    162  N        123.6500   44.8730   57.4370 N.3   157  GLU157     -0.1245
    163  CA       124.1330   43.5040   57.7870 C.3   157  GLU157      0.1567
    164  C        124.3430   43.4450   59.2350 C.2   157  GLU157      0.2260
    165  O        124.5890   44.4750   59.7850 O.2   157  GLU157     -0.2867
    166  CB       125.4630   43.1920   57.1490 C.3   157  GLU157      0.0388
    167  CG       126.5770   44.2470   57.3750 C.3   157  GLU157      0.1160
    168  CD       127.9390   43.9460   56.6380 C.2   157  GLU157      0.3649
    169  OE1      127.9780   43.3830   55.4810 O.co2 157  GLU157     -0.2457
    170  OE2      129.0020   44.2920   57.2110 O.co2 157  GLU157     -0.2457
    171  N        133.5110   29.5630   52.6020 N.3   212  THR212     -0.1203
    172  CA       132.2950   30.1590   52.0230 C.3   212  THR212      0.1994
    173  C        130.9710   30.2730   52.8810 C.2   212  THR212      0.2617
    174  O        130.6780   29.4870   53.7250 O.2   212  THR212     -0.2717
    175  CB       131.9260   29.4420   50.6760 C.3   212  THR212      0.1784
    176  OG1      133.0660   29.3680   49.7970 O.3   212  THR212     -0.2211
    177  CG2      130.7700   30.3350   49.9420 C.3   212  THR212      0.0376
    178  N        130.1520   31.2510   52.6460 N.am  213  PHE213     -0.1975
    179  CA       128.9810   31.2920   53.4480 C.3   213  PHE213      0.1639
    180  C        127.8480   30.5000   52.8340 C.2   213  PHE213      0.2290
    181  O        127.8550   30.2120   51.6860 O.2   213  PHE213     -0.2864
    182  CB       128.4920   32.7070   53.5290 C.3   213  PHE213      0.0560
    183  CG       129.0260   33.4700   54.6790 C.ar  213  PHE213     -0.0200
    184  CD1      129.9010   34.5070   54.4580 C.ar  213  PHE213     -0.0042
    185  CD2      128.7480   33.1090   55.9930 C.ar  213  PHE213     -0.0042
    186  CE1      130.4490   35.2320   55.5310 C.ar  213  PHE213     -0.0003
    187  CE2      129.3090   33.8220   57.0600 C.ar  213  PHE213     -0.0003
    188  CZ       130.1610   34.8800   56.8100 C.ar  213  PHE213     -0.0000
    189  N        124.5560   23.2520   41.2390 N.3   255  MET255     -0.1230
    190  CA       125.5080   24.2850   40.9240 C.3   255  MET255      0.1702
    191  C        125.5630   25.3150   41.9790 C.2   255  MET255      0.2592
    192  O        126.2900   26.2830   41.8840 O.2   255  MET255     -0.2718
    193  CB       125.0570   24.9110   39.6230 C.3   255  MET255      0.0401
    194  CG       125.5300   24.0460   38.3600 C.3   255  MET255      0.0596
    195  SD       125.1880   24.7470   36.7490 S.3   255  MET255     -0.1393
    196  CE       126.5580   24.0070   35.7470 C.3   255  MET255      0.0692
    197  N        124.7260   25.1310   42.9890 N.am  256  VAL256     -0.1966
    198  CA       124.6800   26.1180   44.0540 C.3   256  VAL256      0.1727
    199  C        124.9730   25.4740   45.3770 C.2   256  VAL256      0.2616
    200  O        124.7030   26.0270   46.4430 O.2   256  VAL256     -0.2715
    201  CB       123.3660   26.8890   44.0950 C.3   256  VAL256      0.0290
    202  CG1      123.3220   27.7990   42.9670 C.3   256  VAL256      0.0023
    203  CG2      122.1870   25.9590   44.0290 C.3   256  VAL256      0.0023
    204  N        125.5080   24.2710   45.2600 N.am  257  GLN257     -0.1963
    205  CA       125.8450   23.4870   46.4100 C.3   257  GLN257      0.1733
    206  C        127.3600   23.2460   46.5070 C.2   257  GLN257      0.2616
    207  O        127.9340   22.8040   45.6110 O.2   257  GLN257     -0.2715
    208  CB       125.0770   22.1870   46.3660 C.3   257  GLN257      0.0408
    209  CG       123.5510   22.3230   46.5160 C.3   257  GLN257      0.0908
    210  CD       122.8510   20.9440   46.4940 C.2   257  GLN257      0.2608
    211  OE1      123.2220   20.0720   45.6680 O.2   257  GLN257     -0.2717
    212  NE2      121.9280   20.7000   47.4680 N.am  257  GLN257     -0.0878
    213  N        128.0240   23.5660   47.5870 N.am  258  LEU258     -0.1977
    214  CA       129.4580   23.3580   47.6420 C.3   258  LEU258      0.1596
    215  C        129.7890   21.8700   47.6710 C.2   258  LEU258      0.2287
    216  O        129.0210   21.0740   48.1390 O.2   258  LEU258     -0.2864
    217  CB       130.0930   24.0710   48.8550 C.3   258  LEU258      0.0297
    218  CG       129.9150   25.5970   48.8860 C.3   258  LEU258      0.0022
    219  CD1      130.2150   26.1580   50.2480 C.3   258  LEU258      0.0001
    220  CD2      130.7350   26.3230   47.8080 C.3   258  LEU258      0.0001
@<TRIPOS>BOND
     1   102   103    1
     2   102    99    1
     3   103   104    1
     4   104    98    1
     5    90    89    1
     6    99    98    1
     7    99   100    1
     8    98    93   am
     9    91    92    1
    10    93    94    2
    11    93    92    1
    12    92    95    1
    13    89    86    1
    14   100   105   am
    15   100   101    2
    16    88    87    2
    17   105   106    1
    18   196   195    1
    19   108   107    2
    20    87    86    1
    21    86    85    1
    22    95    96    1
    23    95    97    1
    24   107   106    1
    25   107   111   am
    26   195   194    1
    27   106   109    1
    28    85    79   am
    29   109   110    1
    30   112   111    1
    31   112   113    1
    32    83    82    2
    33   121   120    1
    34   121   115    1
    35    84    82   am
    36    82    81    1
    37   120   119    1
    38    79    80    2
    39    79    78    1
    40   194   193    1
    41    81    78    1
    42   113   115   am
    43   113   114    2
    44   115   116    1
    45    78    77    1
    46   140   138    1
    47   193   190    1
    48   139   137    1
    49   119   116    1
    50   136   135    2
    51   137   138    1
    52   137   134    1
    53   116   117    1
    54    77    71   am
    55    67    66    1
    56   135   134    1
    57   135   141   am
    58   122   117   am
    59   122   123    1
    60   190   189    1
    61   190   191    1
    62    68    66    1
    63   128   130   ar
    64   128   127   ar
    65   130   132   ar
    66   134   133    1
    67   133   124   am
    68   117   118    2
    69   151   150    1
    70   151   145    1
    71    72    71    2
    72    71    70    1
    73    66    65    1
    74   142   141    1
    75   142   143    1
    76   192   191    2
    77   126   123    1
    78   126   127    1
    79   124   123    1
    80   124   125    2
    81   191   197   am
    82   150   149    1
    83   127   129   ar
    84   132   131   ar
    85   145   143   am
    86   145   146    1
    87   149   146    1
    88   143   144    2
    89    73    70    1
    90    73    74    1
    91    70    69    1
    92   202   201    1
    93    69    63   am
    94   197   198    1
    95    65    62    1
    96   146   147    1
    97   129   131   ar
    98    63    62    1
    99    63    64    2
   100    62    61    1
   101    43    42    2
   102   203   201    1
   103   198   201    1
   104   198   199    1
   105    74    75    1
   106    74    76    1
   107   147   148    2
   108   147   152   am
   109    44    41    1
   110    44    45    1
   111    42    41    1
   112    42    47   am
   113   204   199   am
   114   204   205    1
   115   199   200    2
   116    41    40    1
   117   152   153    1
   118   207   206    2
   119    45    46    1
   120   211   210    2
   121    48    47    1
   122    48    51    1
   123    48    49    1
   124   155   154    2
   125    50    49    2
   126    51    52    1
   127   208   205    1
   128   208   209    1
   129   205   206    1
   130    18    17    1
   131    18    19    1
   132   210   209    1
   133   210   212   am
   134   206   213   am
   135    17    12   am
   136    40    46    1
   137    40    28   am
   138   153   154    1
   139    14    11    1
   140    14    15    1
   141   154   156   am
   142    12    13    2
   143    12    11    1
   144    20    19    2
   145    57    54   ar
   146    57    59   ar
   147   213   214    1
   148   214   215    1
   149   214   217    1
   150    19    21   am
   151   215   216    2
   152    52    54   ar
   153    52    53   ar
   154    11    10    1
   155   161   160    1
   156    15    16    1
   157   220   218    1
   158    29    28    2
   159    28    27    1
   160   156   157    1
   161   157   160    1
   162   157   158    1
   163    54    56   ar
   164    59    60   ar
   165    53    55   ar
   166    21    22    1
   167   217   218    1
   168   218   219    1
   169   158   159    2
   170    10    16    1
   171    10     3   am
   172    27    26    1
   173    27    30    1
   174    26    23   am
   175    56    55   ar
   176    56    58   ar
   177    60    58   ar
   178   176   175    1
   179    23    22    1
   180    23    24    2
   181     4     3    2
   182   177   175    1
   183    22    25    1
   184     3     2    1
   185    30    31    1
   186   175   172    1
   187     2     5    1
   188     2     1    1
   189   181   180    2
   190    31    32   ar
   191    31    33   ar
   192     5     6    1
   193   172   171    1
   194   172   173    1
   195    32    34   ar
   196    36    33   ar
   197    36    38   ar
   198    33    35   ar
   199   178   173   am
   200   178   179    1
   201   180   179    1
   202   173   174    2
   203     8     7   ar
   204     6     7    1
   205   179   182    1
   206     7     9   ar
   207   182   183    1
   208    38    39   ar
   209    34    35   ar
   210    35    37   ar
   211   184   183   ar
   212   184   186   ar
   213   183   185   ar
   214    39    37   ar
   215   169   168   ar
   216   186   188   ar
   217   185   187   ar
   218   168   170   ar
   219   168   167    1
   220   188   187   ar
   221   166   167    1
   222   166   163    1
   223   162   163    1
   224   163   164    1
   225   164   165    2
