@<TRIPOS>MOLECULE
tmp/1fizA02.pdb
 121 119 0 0 0
SMALL
GASTEIGER

@<TRIPOS>ATOM
      1  N        105.1680   34.7070   51.9700 N.3    47  HIS47      -0.1241
      2  CA       104.3060   35.8030   52.4230 C.3    47  HIS47       0.1621
      3  C        104.4130   37.1140   51.7550 C.2    47  HIS47       0.2264
      4  O        103.5950   38.0260   51.8290 O.2    47  HIS47      -0.2867
      5  CB       104.3610   35.9990   53.9440 C.3    47  HIS47       0.0745
      6  CG       105.6020   36.7010   54.4680 C.ar   47  HIS47       0.0817
      7  ND1      106.6750   36.0160   55.0340 N.ar   47  HIS47      -0.2268
      8  CD2      105.8920   38.0240   54.5940 C.ar   47  HIS47       0.1154
      9  CE1      107.5730   36.8960   55.4490 C.ar   47  HIS47       0.1986
     10  NE2      107.1160   38.1190   55.2060 N.ar   47  HIS47      -0.2212
     11  N        108.9200   31.3060   72.4290 N.3   174  TYR174     -0.1241
     12  CA       107.8120   31.2780   71.5100 C.3   174  TYR174      0.1605
     13  C        106.7450   30.2660   71.9680 C.2   174  TYR174      0.2264
     14  O        105.6440   30.2030   71.4470 O.2   174  TYR174     -0.2867
     15  CB       108.2850   31.0150   70.0750 C.3   174  TYR174      0.0534
     16  CG       108.7920   32.2400   69.3330 C.ar  174  TYR174     -0.0201
     17  CD1      108.0020   33.3220   69.1270 C.ar  174  TYR174     -0.0009
     18  CD2      110.0970   32.3320   68.8870 C.ar  174  TYR174     -0.0009
     19  CE1      108.4530   34.4850   68.4440 C.ar  174  TYR174      0.0417
     20  CE2      110.5760   33.4960   68.2070 C.ar  174  TYR174      0.0417
     21  CZ       109.7540   34.5870   67.9850 C.ar  174  TYR174      0.1957
     22  OH       110.2310   35.7440   67.2870 O.3   174  TYR174     -0.2866
     23  N        118.4030   41.9190   65.1000 N.3   193  ASP193     -0.1225
     24  CA       117.4430   41.0570   64.4260 C.3   193  ASP193      0.1805
     25  C        116.9970   41.6190   63.0750 C.2   193  ASP193      0.2598
     26  O        117.3150   42.7550   62.7200 O.2   193  ASP193     -0.2718
     27  CB       116.1820   40.8530   65.2970 C.3   193  ASP193      0.1424
     28  CG       115.3870   39.6760   64.8750 C.2   193  ASP193      0.3668
     29  OD1      115.9770   38.6870   64.3300 O.co2 193  ASP193     -0.2456
     30  OD2      114.1860   39.6500   65.0620 O.co2 193  ASP193     -0.2456
     31  N        116.2490   40.8160   62.3080 N.am  194  THR194     -0.1939
     32  CA       115.6730   41.2640   61.0520 C.3   194  THR194      0.2028
     33  C        114.3570   42.0090   61.3760 C.2   194  THR194      0.2642
     34  O        114.0020   42.2040   62.5030 O.2   194  THR194     -0.2714
     35  CB       115.3650   40.0690   60.2110 C.3   194  THR194      0.1808
     36  OG1      115.0580   38.9860   61.0820 O.3   194  THR194     -0.2208
     37  CG2      116.5050   39.5890   59.4090 C.3   194  THR194      0.0379
     38  N        113.6300   42.4120   60.3600 N.am  195  CYS195     -0.1953
     39  CA       112.4740   43.1800   60.5770 C.3   195  CYS195      0.1843
     40  C        111.7260   43.2710   59.2390 C.2   195  CYS195      0.2625
     41  O        112.2430   42.8230   58.2230 O.2   195  CYS195     -0.2714
     42  CB       112.9360   44.5190   61.1460 C.3   195  CYS195      0.0997
     43  SG       111.8050   45.3030   62.2980 S.3   195  CYS195     -0.0797
     44  N        110.4780   43.7780   59.2530 N.am  196  GLN196     -0.1977
     45  CA       109.6490   43.9170   57.9970 C.3   196  GLN196      0.1601
     46  C        110.5580   44.5180   56.9260 C.2   196  GLN196      0.2287
     47  O        111.4220   45.3470   57.1870 O.2   196  GLN196     -0.2864
     48  CB       108.4130   44.7820   58.2260 C.3   196  GLN196      0.0394
     49  CG       108.0400   44.9850   59.6660 C.3   196  GLN196      0.0908
     50  CD       107.3960   43.8130   60.3190 C.2   196  GLN196      0.2608
     51  OE1      107.3510   43.7430   61.5090 O.2   196  GLN196     -0.2717
     52  NE2      106.8970   42.8760   59.5500 N.am  196  GLN196     -0.0878
     53  N        112.1830   40.3730   55.0410 N.3   199  SER199     -0.1217
     54  CA       111.6020   39.1000   54.6570 C.3   199  SER199      0.1889
     55  C        112.0430   38.6630   53.2550 C.2   199  SER199      0.2288
     56  O        112.1650   39.4850   52.3130 O.2   199  SER199     -0.2866
     57  CB       110.0910   39.2210   54.6630 C.3   199  SER199      0.2089
     58  OG       109.6480   39.7420   55.8890 O.3   199  SER199     -0.2183
     59  N        114.3760   34.7480   55.8280 N.3   219  THR219     -0.1203
     60  CA       113.7130   35.5040   56.9100 C.3   219  THR219      0.1994
     61  C        112.2350   35.3390   56.7830 C.2   219  THR219      0.2619
     62  O        111.6500   35.6710   55.7110 O.2   219  THR219     -0.2717
     63  CB       114.0710   36.9420   56.7230 C.3   219  THR219      0.1784
     64  OG1      115.4640   37.0010   56.8600 O.3   219  THR219     -0.2211
     65  CG2      113.6000   37.8270   57.8690 C.3   219  THR219      0.0376
     66  N        111.6190   34.8810   57.8520 N.am  220  SER220     -0.1937
     67  CA       110.1770   34.6130   57.8180 C.3   220  SER220      0.2055
     68  C        109.3190   35.5080   58.6890 C.2   220  SER220      0.2643
     69  O        108.5020   36.2310   58.1400 O.2   220  SER220     -0.2714
     70  CB       109.8340   33.1670   58.1170 C.3   220  SER220      0.2130
     71  OG       108.4720   32.9490   57.8530 O.3   220  SER220     -0.2179
     72  N        109.4030   35.4290   60.0060 N.am  221  TRP221     -0.1959
     73  CA       108.6050   36.3320   60.8320 C.3   221  TRP221      0.1771
     74  C        109.2520   36.4510   62.2340 C.2   221  TRP221      0.2620
     75  O        110.3950   36.0890   62.4200 O.2   221  TRP221     -0.2715
     76  CB       107.1420   35.8170   60.9550 C.3   221  TRP221      0.0590
     77  CG       107.0160   34.3670   61.5850 C.ar  221  TRP221      0.0006
     78  CD1      107.1480   33.1800   60.9400 C.ar  221  TRP221      0.0946
     79  CD2      106.7530   34.0180   62.9560 C.ar  221  TRP221      0.0152
     80  NE1      107.0450   32.1210   61.8180 N.ar  221  TRP221     -0.2442
     81  CE2      106.8220   32.5970   63.0640 C.ar  221  TRP221      0.0810
     82  CE3      106.4440   34.7480   64.0900 C.ar  221  TRP221      0.0012
     83  CZ2      106.5390   31.9090   64.2340 C.ar  221  TRP221      0.0191
     84  CZ3      106.1960   34.0580   65.2920 C.ar  221  TRP221      0.0001
     85  CH2      106.1970   32.6530   65.3420 C.ar  221  TRP221      0.0015
     86  N        108.4330   36.8110   63.2200 N.am  222  GLY222     -0.1940
     87  CA       108.8160   36.9250   64.5910 C.3   222  GLY222      0.2014
     88  C        107.9270   37.9170   65.3000 C.2   222  GLY222      0.2639
     89  O        107.1610   38.6430   64.7030 O.2   222  GLY222     -0.2714
     90  N        108.0820   37.9710   66.6050 N.am  223  VAL223     -0.1963
     91  CA       107.3070   38.8790   67.4070 C.3   223  VAL223      0.1727
     92  C        107.9600   40.2200   67.5810 C.2   223  VAL223      0.2617
     93  O        108.9360   40.3110   68.2900 O.2   223  VAL223     -0.2715
     94  CB       107.1260   38.2760   68.7400 C.3   223  VAL223      0.0290
     95  CG1      106.2980   39.1500   69.6210 C.3   223  VAL223      0.0023
     96  CG2      106.4020   37.0020   68.5830 C.3   223  VAL223      0.0023
     97  N        107.7370   41.1880   66.9370 N.am  224  GLY224     -0.1940
     98  CA       108.2760   42.5270   66.9480 C.3   224  GLY224      0.2014
     99  C        109.6020   42.3760   66.2400 C.2   224  GLY224      0.2639
    100  O        109.7080   41.5140   65.3570 O.2   224  GLY224     -0.2714
    101  N        110.6150   43.1670   66.6270 N.am  225  CYS225     -0.1967
    102  CA       111.9250   43.1090   66.0460 C.3   225  CYS225      0.1712
    103  C        112.8270   43.4610   67.1550 C.2   225  CYS225      0.2296
    104  O        112.7230   44.5110   67.7870 O.2   225  CYS225     -0.2864
    105  CB       112.0940   44.1440   64.9470 C.3   225  CYS225      0.0983
    106  SG       110.8960   44.0210   63.6160 S.3   225  CYS225     -0.0798
    107  N        112.7460   36.8820   71.8260 N.3   230  ARG230     -0.1245
    108  CA       111.9290   36.7050   70.6650 C.3   230  ARG230      0.1563
    109  C        112.8320   36.7120   69.3860 C.2   230  ARG230      0.2260
    110  O        112.9370   37.6870   68.6540 O.2   230  ARG230     -0.2867
    111  CB       110.9160   37.8470   70.6160 C.3   230  ARG230      0.0307
    112  CG       109.8580   37.8780   71.7180 C.3   230  ARG230      0.0489
    113  CD       108.9410   36.6940   71.7210 C.3   230  ARG230      0.2205
    114  NE       109.1260   36.0040   72.9650 N.pl3 230  ARG230     -0.0865
    115  CZ       108.2760   35.9570   73.9490 C.cat 230  ARG230      0.5346
    116  NH1      107.1000   36.5680   73.8660 N.pl3 230  ARG230      0.1354
    117  NH2      108.6380   35.2760   75.0310 N.pl3 230  ARG230      0.1354
    118  N        114.3610   36.1050   65.6950 N.3   232  GLY232     -0.1225
    119  CA       113.7690   35.9350   64.4150 C.3   232  GLY232      0.1811
    120  C        113.6050   34.4920   64.0160 C.2   232  GLY232      0.2280
    121  O        114.4540   33.6980   64.2150 O.2   232  GLY232     -0.2866
@<TRIPOS>BOND
     1     3     4    2
     2     3     2    1
     3     1     2    1
     4    56    55    2
     5     2     5    1
     6    55    54    1
     7     5     6    1
     8     6     8   ar
     9     6     7   ar
    10     8    10   ar
    11    54    57    1
    12    54    53    1
    13    57    58    1
    14     7     9   ar
    15    10     9   ar
    16    62    61    2
    17    59    60    1
    18    63    64    1
    19    63    60    1
    20    63    65    1
    21    61    60    1
    22    61    66   am
    23    46    47    2
    24    46    45    1
    25    67    66    1
    26    67    70    1
    27    67    68    1
    28    71    70    1
    29    45    48    1
    30    45    44    1
    31    69    68    2
    32    41    40    2
    33    48    49    1
    34    68    72   am
    35    40    44   am
    36    40    39    1
    37    37    35    1
    38    52    50   am
    39    49    50    1
    40    72    73    1
    41    35    32    1
    42    35    36    1
    43    50    51    2
    44    38    39    1
    45    38    33   am
    46    39    42    1
    47    73    76    1
    48    73    74    1
    49    78    77   ar
    50    78    80   ar
    51    76    77    1
    52    32    33    1
    53    32    31    1
    54    42    43    1
    55    33    34    2
    56    77    79   ar
    57    80    81   ar
    58    74    75    2
    59    74    86   am
    60    43   106    1
    61    31    25   am
    62    26    25    2
    63    79    81   ar
    64    79    82   ar
    65    81    83   ar
    66    25    24    1
    67    86    87    1
    68   106   105    1
    69   120   121    2
    70   120   119    1
    71    82    84   ar
    72    83    85   ar
    73    29    28   ar
    74   119   118    1
    75    24    23    1
    76    24    27    1
    77    87    88    1
    78    89    88    2
    79    28    30   ar
    80    28    27    1
    81   105   102    1
    82    84    85   ar
    83    88    90   am
    84   100    99    2
    85   102   101    1
    86   102   103    1
    87    99   101   am
    88    99    98    1
    89    90    91    1
    90    97    98    1
    91    97    92   am
    92   103   104    2
    93    22    21    1
    94    91    92    1
    95    91    94    1
    96    92    93    2
    97    21    20   ar
    98    21    19   ar
    99    20    18   ar
   100    19    17   ar
   101    96    94    1
   102   110   109    2
   103    94    95    1
   104    18    16   ar
   105    17    16   ar
   106    16    15    1
   107   109   108    1
   108    15    12    1
   109   111   108    1
   110   111   112    1
   111   108   107    1
   112    14    13    2
   113    12    13    1
   114    12    11    1
   115   112   113    1
   116   113   114    1
   117   114   115    2
   118   116   115    1
   119   115   117    1
