@<TRIPOS>MOLECULE
tmp/1fj8A00.pdb
 135 130 0 0 0
SMALL
GASTEIGER

@<TRIPOS>ATOM
      1  N          7.2400   -7.3170   -3.0690 N.3   105  GLY105     -0.1210
      2  CA         6.0840   -8.0860   -2.6630 C.3   105  GLY105      0.1956
      3  C          5.0880   -7.2560   -1.8750 C.2   105  GLY105      0.2612
      4  O          3.8920   -7.5140   -1.9290 O.2   105  GLY105     -0.2717
      5  N          5.5730   -6.2480   -1.1520 N.am  106  GLY106     -0.1956
      6  CA         4.6810   -5.4430   -0.3430 C.3   106  GLY106      0.1869
      7  C          4.7240   -3.9410   -0.5210 C.2   106  GLY106      0.2309
      8  O          4.0760   -3.2240    0.2410 O.2   106  GLY106     -0.2863
      9  N          4.8930   -0.7950    3.3010 N.3   109  PRO109     -0.2116
     10  CA         4.0320   -0.7550    4.4860 C.3   109  PRO109      0.1372
     11  C          4.4400    0.4050    5.4070 C.2   109  PRO109      0.2244
     12  O          3.5890    1.1070    5.9520 O.2   109  PRO109     -0.2868
     13  CB         4.2810   -2.1060    5.1450 C.3   109  PRO109      0.0268
     14  CG         4.7110   -2.9990    4.0410 C.3   109  PRO109      0.0207
     15  CD         5.4310   -2.1450    3.0450 C.3   109  PRO109      0.0892
     16  N          4.0100  -11.8580   -4.5780 N.3   161  ALA161     -0.1231
     17  CA         4.4430  -12.2260   -3.2440 C.3   161  ALA161      0.1694
     18  C          5.9140  -12.6310   -3.2070 C.2   161  ALA161      0.2592
     19  O          6.7810  -11.8720   -3.6240 O.2   161  ALA161     -0.2718
     20  CB         3.5600  -13.3590   -2.7100 C.3   161  ALA161      0.0304
     21  N          6.2010  -13.8310   -2.7140 N.am  162  CYS162     -0.1970
     22  CA         7.5840  -14.2710   -2.6090 C.3   162  CYS162      0.1712
     23  C          8.1780  -14.8220   -3.8850 C.2   162  CYS162      0.2296
     24  O          9.1970  -15.5110   -3.8620 O.2   162  CYS162     -0.2864
     25  CB         7.7190  -15.2870   -1.4820 C.3   162  CYS162      0.0983
     26  SG         7.6970  -14.4940    0.1540 S.3   162  CYS162     -0.0798
     27  N         12.8560   -5.0050   -1.5310 N.3   190  GLU190     -0.1245
     28  CA        11.9260   -5.1320   -0.4150 C.3   190  GLU190      0.1567
     29  C         12.5070   -4.4180    0.7880 C.2   190  GLU190      0.2260
     30  O         13.6890   -4.5460    1.0760 O.2   190  GLU190     -0.2867
     31  CB        11.6900   -6.6130   -0.0750 C.3   190  GLU190      0.0388
     32  CG        10.3930   -6.8950    0.6800 C.3   190  GLU190      0.1160
     33  CD         9.1960   -6.9480   -0.2430 C.2   190  GLU190      0.3649
     34  OE1        8.2810   -6.1020   -0.0800 O.co2 190  GLU190     -0.2457
     35  OE2        9.1710   -7.8300   -1.1350 O.co2 190  GLU190     -0.2457
     36  N          5.5990   -4.5290    8.4550 N.3   196  MET196     -0.1245
     37  CA         5.2900   -5.6590    7.5940 C.3   196  MET196      0.1570
     38  C          5.6350   -6.9790    8.2720 C.2   196  MET196      0.2261
     39  O          4.8560   -7.9310    8.2230 O.2   196  MET196     -0.2867
     40  CB         6.0640   -5.5390    6.2800 C.3   196  MET196      0.0387
     41  CG         6.1070   -6.8200    5.4740 C.3   196  MET196      0.0595
     42  SD         6.7340   -6.5970    3.8040 S.3   196  MET196     -0.1393
     43  CE         8.1320   -5.5910    4.0860 C.3   196  MET196      0.0692
     44  N          3.1810   -8.7530   10.5450 N.3   199  GLU199     -0.1231
     45  CA         2.0580   -9.4360    9.9100 C.3   199  GLU199      0.1699
     46  C          2.3640  -10.9070    9.6320 C.2   199  GLU199      0.2592
     47  O          1.4720  -11.7460    9.6370 O.2   199  GLU199     -0.2718
     48  CB         1.6730   -8.7130    8.6140 C.3   199  GLU199      0.0402
     49  CG         0.6970   -7.5440    8.8140 C.3   199  GLU199      0.1161
     50  CD         0.9580   -6.3810    7.8480 C.2   199  GLU199      0.3649
     51  OE1        1.5450   -6.6420    6.7750 O.co2 199  GLU199     -0.2457
     52  OE2        0.5810   -5.2220    8.1630 O.co2 199  GLU199     -0.2457
     53  N          3.6330  -11.2160    9.4030 N.am  200  PHE200     -0.1976
     54  CA         4.0550  -12.5900    9.1350 C.3   200  PHE200      0.1639
     55  C          4.1430  -13.3420   10.4560 C.2   200  PHE200      0.2290
     56  O          3.8130  -14.5300   10.5420 O.2   200  PHE200     -0.2864
     57  CB         5.4160  -12.6020    8.4470 C.3   200  PHE200      0.0560
     58  CG         5.3540  -12.2840    6.9910 C.ar  200  PHE200     -0.0200
     59  CD1        5.6090  -10.9910    6.5340 C.ar  200  PHE200     -0.0042
     60  CD2        5.0340  -13.2800    6.0700 C.ar  200  PHE200     -0.0042
     61  CE1        5.5460  -10.6860    5.1600 C.ar  200  PHE200     -0.0003
     62  CE2        4.9670  -13.0010    4.7050 C.ar  200  PHE200     -0.0003
     63  CZ         5.2240  -11.6980    4.2430 C.ar  200  PHE200     -0.0000
     64  N         10.5780  -18.9320    8.6360 N.3   228  PHE228     -0.1241
     65  CA        11.6480  -18.2040    7.9730 C.3   228  PHE228      0.1605
     66  C         12.0700  -16.9340    8.7010 C.2   228  PHE228      0.2264
     67  O         11.3660  -16.4390    9.5880 O.2   228  PHE228     -0.2867
     68  CB        11.2770  -17.9080    6.5020 C.3   228  PHE228      0.0534
     69  CG        10.2480  -16.8210    6.3080 C.ar  228  PHE228     -0.0203
     70  CD1       10.6220  -15.4780    6.2930 C.ar  228  PHE228     -0.0042
     71  CD2        8.9140  -17.1440    6.0440 C.ar  228  PHE228     -0.0042
     72  CE1        9.6920  -14.4710    6.0120 C.ar  228  PHE228     -0.0003
     73  CE2        7.9710  -16.1400    5.7610 C.ar  228  PHE228     -0.0003
     74  CZ         8.3660  -14.8050    5.7440 C.ar  228  PHE228     -0.0000
     75  N         13.7350  -22.8190   -2.9680 N.3   297  HIS297     -0.1241
     76  CA        13.0470  -21.6940   -2.3520 C.3   297  HIS297      0.1621
     77  C         13.2580  -21.8370   -0.8390 C.2   297  HIS297      0.2264
     78  O         13.3200  -20.8440   -0.1190 O.2   297  HIS297     -0.2867
     79  CB        11.5520  -21.7350   -2.6970 C.3   297  HIS297      0.0745
     80  CG        10.7600  -20.6020   -2.1150 C.ar  297  HIS297      0.0817
     81  ND1       11.0720  -19.2790   -2.3470 N.ar  297  HIS297     -0.2268
     82  CD2        9.6670  -20.5930   -1.3150 C.ar  297  HIS297      0.1154
     83  CE1       10.2070  -18.5040   -1.7160 C.ar  297  HIS297      0.1986
     84  NE2        9.3440  -19.2760   -1.0830 N.ar  297  HIS297     -0.2212
     85  N         12.5900  -21.8500    2.5220 N.3   299  THR299     -0.1218
     86  CA        12.5460  -20.7390    3.4640 C.3   299  THR299      0.1862
     87  C         12.7800  -21.0950    4.9460 C.2   299  THR299      0.2287
     88  O         12.9240  -20.2050    5.7850 O.2   299  THR299     -0.2866
     89  CB        11.2010  -20.0050    3.3400 C.3   299  THR299      0.1770
     90  OG1       10.1430  -20.8630    3.7880 O.3   299  THR299     -0.2211
     91  CG2       10.9470  -19.6210    1.8920 C.3   299  THR299      0.0375
     92  N         14.9500  -14.5020    4.2780 N.3   332  HIS332     -0.1241
     93  CA        13.9620  -14.3920    3.1990 C.3   332  HIS332      0.1621
     94  C         13.6070  -12.9360    2.8630 C.2   332  HIS332      0.2264
     95  O         12.8240  -12.3040    3.5640 O.2   332  HIS332     -0.2867
     96  CB        12.6970  -15.1480    3.6060 C.3   332  HIS332      0.0745
     97  CG        11.7750  -15.4510    2.4720 C.ar  332  HIS332      0.0817
     98  ND1       11.8570  -14.8140    1.2530 N.ar  332  HIS332     -0.2268
     99  CD2       10.7430  -16.3200    2.3740 C.ar  332  HIS332      0.1154
    100  CE1       10.9150  -15.2790    0.4540 C.ar  332  HIS332      0.1986
    101  NE2       10.2250  -16.1950    1.1110 N.ar  332  HIS332     -0.2212
    102  N         11.7340  -11.8770    0.7230 N.3   334  LEU334     -0.1245
    103  CA        10.4160  -11.8630    0.1000 C.3   334  LEU334      0.1561
    104  C         10.4180  -11.5400   -1.3990 C.2   334  LEU334      0.2260
    105  O         10.8420  -12.3610   -2.2110 O.2   334  LEU334     -0.2867
    106  CB         9.5130  -10.8860    0.8660 C.3   334  LEU334      0.0270
    107  CG         9.6100  -10.9860    2.3980 C.3   334  LEU334      0.0019
    108  CD1        8.8960   -9.8150    3.0470 C.3   334  LEU334      0.0001
    109  CD2        9.0050  -12.3040    2.8640 C.3   334  LEU334      0.0001
    110  N          8.4520  -19.3730   -4.7630 N.3   389  PHE389     -0.1227
    111  CA         7.0240  -19.5840   -4.5320 C.3   389  PHE389      0.1736
    112  C          6.4460  -18.5060   -3.6170 C.2   389  PHE389      0.2596
    113  O          7.1390  -17.9740   -2.7590 O.2   389  PHE389     -0.2718
    114  CB         6.7890  -20.9680   -3.9290 C.3   389  PHE389      0.0547
    115  CG         7.5030  -22.0740   -4.6550 C.ar  389  PHE389     -0.0202
    116  CD1        7.3590  -22.2270   -6.0370 C.ar  389  PHE389     -0.0042
    117  CD2        8.3300  -22.9560   -3.9640 C.ar  389  PHE389     -0.0042
    118  CE1        8.0370  -23.2480   -6.7210 C.ar  389  PHE389     -0.0003
    119  CE2        9.0130  -23.9830   -4.6320 C.ar  389  PHE389     -0.0003
    120  CZ         8.8690  -24.1310   -6.0120 C.ar  389  PHE389     -0.0000
    121  N          5.1720  -18.1870   -3.8100 N.am  390  GLY390     -0.1942
    122  CA         4.5370  -17.1740   -2.9880 C.3   390  GLY390      0.2014
    123  C          3.1000  -17.4870   -2.6220 C.2   390  GLY390      0.2638
    124  O          2.4850  -18.3820   -3.2050 O.2   390  GLY390     -0.2714
    125  N          2.5630  -16.7490   -1.6500 N.am  391  PHE391     -0.1973
    126  CA         1.1840  -16.9390   -1.2120 C.3   391  PHE391      0.1639
    127  C          0.2610  -16.7930   -2.4150 C.2   391  PHE391      0.2290
    128  O          0.5930  -16.1100   -3.3830 O.2   391  PHE391     -0.2864
    129  CB         0.8110  -15.9060   -0.1440 C.3   391  PHE391      0.0560
    130  CG         1.4260  -16.1660    1.2060 C.ar  391  PHE391     -0.0200
    131  CD1        2.0700  -17.3690    1.4780 C.ar  391  PHE391     -0.0042
    132  CD2        1.3680  -15.2000    2.2000 C.ar  391  PHE391     -0.0042
    133  CE1        2.6480  -17.6030    2.7230 C.ar  391  PHE391     -0.0003
    134  CE2        1.9420  -15.4250    3.4410 C.ar  391  PHE391     -0.0003
    135  CZ         2.5850  -16.6310    3.7050 C.ar  391  PHE391     -0.0000
@<TRIPOS>BOND
     1   118   116   ar
     2   118   120   ar
     3   116   115   ar
     4   120   119   ar
     5   110   111    1
     6   115   117   ar
     7   115   114    1
     8   119   117   ar
     9    16    17    1
    10   111   114    1
    11   111   112    1
    12    23    24    2
    13    23    22    1
    14   121   112   am
    15   121   122    1
    16    19    18    2
    17   112   113    2
    18   128   127    2
    19    17    18    1
    20    17    20    1
    21    18    21   am
    22   124   123    2
    23     1     2    1
    24   122   123    1
    25    75    76    1
    26    21    22    1
    27    79    76    1
    28    79    80    1
    29     2     3    1
    30   123   125   am
    31    22    25    1
    32   127   126    1
    33    76    77    1
    34    81    80   ar
    35    81    83   ar
    36   105   104    2
    37    80    82   ar
    38     4     3    2
    39     3     5   am
    40    83    84   ar
    41   125   126    1
    42    27    28    1
    43    25    26    1
    44   104   103    1
    45    82    84   ar
    46   126   129    1
    47     5     6    1
    48    35    33   ar
    49    77    78    2
    50     7     6    1
    51     7     8    2
    52    28    31    1
    53    28    29    1
    54    33    34   ar
    55    33    32    1
    56   129   130    1
    57    31    32    1
    58   103   102    1
    59   103   106    1
    60   100   101   ar
    61   100    98   ar
    62    29    30    2
    63   106   107    1
    64   101    99   ar
    65   130   131   ar
    66   130   132   ar
    67    98    97   ar
    68   131   133   ar
    69    91    89    1
    70   132   134   ar
    71    99    97   ar
    72   107   109    1
    73   107   108    1
    74    97    96    1
    75    85    86    1
    76   133   135   ar
    77    94    93    1
    78    94    95    2
    79    15     9    1
    80    15    14    1
    81    93    96    1
    82    93    92    1
    83     9    10    1
    84    89    86    1
    85    89    90    1
    86   134   135   ar
    87    86    87    1
    88    42    43    1
    89    42    41    1
    90    14    13    1
    91    63    62   ar
    92    63    61   ar
    93    10    13    1
    94    10    11    1
    95    62    60   ar
    96    87    88    2
    97    61    59   ar
    98    11    12    2
    99    41    40    1
   100    74    73   ar
   101    74    72   ar
   102    73    71   ar
   103    72    70   ar
   104    71    69   ar
   105    60    58   ar
   106    40    37    1
   107    70    69   ar
   108    69    68    1
   109    68    65    1
   110    59    58   ar
   111    51    50   ar
   112    58    57    1
   113    37    38    1
   114    37    36    1
   115    50    52   ar
   116    50    49    1
   117    65    64    1
   118    65    66    1
   119    39    38    2
   120    57    54    1
   121    48    49    1
   122    48    45    1
   123    66    67    2
   124    54    53    1
   125    54    55    1
   126    53    46   am
   127    46    47    2
   128    46    45    1
   129    45    44    1
   130    55    56    2
