@<TRIPOS>MOLECULE
tmp/1fjjA00.pdb
 126 126 0 0 0
SMALL
GASTEIGER

@<TRIPOS>ATOM
      1  N         38.6390   17.0780    3.6610 N.3    20  PHE20      -0.1241
      2  CA        39.9170   16.4850    3.2660 C.3    20  PHE20       0.1605
      3  C         40.5520   17.2610    2.1110 C.2    20  PHE20       0.2264
      4  O         39.8400   17.8970    1.3310 O.2    20  PHE20      -0.2867
      5  CB        39.7230   15.0020    2.8880 C.3    20  PHE20       0.0534
      6  CG        41.0060   14.2400    2.7410 C.ar   20  PHE20      -0.0203
      7  CD1       41.9760   14.2490    3.7400 C.ar   20  PHE20      -0.0042
      8  CD2       41.2500   13.5050    1.5840 C.ar   20  PHE20      -0.0042
      9  CE1       43.1460   13.5560    3.6000 C.ar   20  PHE20      -0.0003
     10  CE2       42.4390   12.8170    1.4430 C.ar   20  PHE20      -0.0003
     11  CZ        43.3960   12.8250    2.4530 C.ar   20  PHE20      -0.0000
     12  N         32.1030    8.7970   10.7900 N.3    51  ASP51      -0.1239
     13  CA        31.1070    8.8760    9.7200 C.3    51  ASP51       0.1674
     14  C         30.3780    7.5360    9.7140 C.2    51  ASP51       0.2266
     15  O         30.8980    6.5560    9.1690 O.2    51  ASP51      -0.2867
     16  CB        31.8290    9.0990    8.3800 C.3    51  ASP51       0.1410
     17  CG        30.9100    8.9870    7.1690 C.2    51  ASP51       0.3668
     18  OD1       29.6890    8.8140    7.3800 O.co2  51  ASP51      -0.2456
     19  OD2       31.4380    9.0780    6.0370 O.co2  51  ASP51      -0.2456
     20  N         29.6180    5.9620    5.8780 N.3    54  ALA54      -0.1231
     21  CA        30.6060    5.4830    4.9070 C.3    54  ALA54       0.1679
     22  C         30.2660    4.0320    4.5870 C.2    54  ALA54       0.2434
     23  O         30.1040    3.2130    5.4830 O.2    54  ALA54      -0.2733
     24  CB        32.0010    5.5800    5.5180 C.3    54  ALA54       0.0304
     25  N         30.1990    3.6840    3.3040 N.am   55  PRO55      -0.2718
     26  CA        29.7580    2.3610    2.8690 C.3    55  PRO55       0.1535
     27  C         30.9030    1.3670    2.9180 C.2    55  PRO55       0.2599
     28  O         31.4590    0.9550    1.9050 O.2    55  PRO55      -0.2715
     29  CB        29.2900    2.6590    1.4460 C.3    55  PRO55       0.0310
     30  CG        30.2210    3.7250    0.9590 C.3    55  PRO55       0.0237
     31  CD        30.4040    4.6190    2.1750 C.3    55  PRO55       0.0939
     32  N         31.3140    1.0010    4.1300 N.am   56  THR56      -0.1951
     33  CA        32.4250    0.0980    4.3390 C.3    56  THR56       0.1897
     34  C         32.0290   -1.1390    5.1350 C.2    56  THR56       0.2313
     35  O         32.8490   -2.0410    5.2220 O.2    56  THR56      -0.2863
     36  CB        33.5030    0.7980    5.2150 C.3    56  THR56       0.1794
     37  OG1       32.8860    1.0760    6.4840 O.3    56  THR56      -0.2208
     38  CG2       33.9700    2.1020    4.5790 C.3    56  THR56       0.0378
     39  N         33.3890    4.9120    9.2780 N.3    60  TRP60      -0.1241
     40  CA        34.7670    5.3490    9.1350 C.3    60  TRP60       0.1605
     41  C         35.1930    6.2550   10.2930 C.2    60  TRP60       0.2264
     42  O         34.5440    7.2920   10.5300 O.2    60  TRP60      -0.2867
     43  CB        34.9210    6.1850    7.8500 C.3    60  TRP60       0.0550
     44  CG        36.3350    6.4280    7.4260 C.ar   60  TRP60       0.0003
     45  CD1       37.1630    7.4450    7.8170 C.ar   60  TRP60       0.0946
     46  CD2       37.0840    5.6210    6.5160 C.ar   60  TRP60       0.0152
     47  NE1       38.3810    7.3120    7.2030 N.ar   60  TRP60      -0.2442
     48  CE2       38.3630    6.2150    6.3850 C.ar   60  TRP60       0.0810
     49  CE3       36.8010    4.4510    5.7930 C.ar   60  TRP60       0.0012
     50  CZ2       39.3460    5.6820    5.5620 C.ar   60  TRP60       0.0191
     51  CZ3       37.7960    3.9200    4.9920 C.ar   60  TRP60       0.0001
     52  CH2       39.0450    4.5510    4.8580 C.ar   60  TRP60       0.0015
     53  N         37.5570    9.0030   11.4390 N.3    62  HIS62      -0.1241
     54  CA        38.3840   10.0470   10.8770 C.3    62  HIS62       0.1621
     55  C         39.4670   10.5490   11.8320 C.2    62  HIS62       0.2264
     56  O         40.4190   11.2160   11.4210 O.2    62  HIS62      -0.2867
     57  CB        37.4680   11.2580   10.5180 C.3    62  HIS62       0.0745
     58  CG        36.6830   10.9720    9.2660 C.ar   62  HIS62       0.0817
     59  ND1       37.1670   11.4280    8.0550 N.ar   62  HIS62      -0.2268
     60  CD2       35.5420   10.3130    9.0140 C.ar   62  HIS62       0.1154
     61  CE1       36.3380   11.0030    7.0850 C.ar   62  HIS62       0.1986
     62  NE2       35.3360   10.3310    7.6530 N.ar   62  HIS62      -0.2212
     63  N         42.0910    5.6970    8.1100 N.3    96  PHE96      -0.1241
     64  CA        42.9840    6.1170    7.0390 C.3    96  PHE96       0.1605
     65  C         44.3790    5.5280    7.2250 C.2    96  PHE96       0.2264
     66  O         45.2700    5.7860    6.4140 O.2    96  PHE96      -0.2867
     67  CB        42.9950    7.6440    6.9470 C.3    96  PHE96       0.0534
     68  CG        43.2940    8.2030    5.5840 C.ar   96  PHE96      -0.0203
     69  CD1       42.7840    7.6410    4.4310 C.ar   96  PHE96      -0.0042
     70  CD2       44.0770    9.3420    5.4570 C.ar   96  PHE96      -0.0042
     71  CE1       43.0300    8.1940    3.1920 C.ar   96  PHE96      -0.0003
     72  CE2       44.3050    9.9240    4.2250 C.ar   96  PHE96      -0.0003
     73  CZ        43.8200    9.3180    3.0780 C.ar   96  PHE96      -0.0000
     74  N         41.8910   13.4860    9.5970 N.3   102  ASP102     -0.1225
     75  CA        41.7590   13.6820    8.1540 C.3   102  ASP102      0.1805
     76  C         40.2550   13.8520    7.9270 C.2   102  ASP102      0.2598
     77  O         39.4350   13.0990    8.4460 O.2   102  ASP102     -0.2718
     78  CB        42.3320   12.5400    7.3080 C.3   102  ASP102      0.1424
     79  CG        43.8440   12.5040    7.4730 C.2   102  ASP102      0.3668
     80  OD1       44.5330   13.3770    6.9050 O.co2 102  ASP102     -0.2456
     81  OD2       44.3410   11.6250    8.2040 O.co2 102  ASP102     -0.2456
     82  N         39.8590   14.8600    7.1530 N.am  103  GLY103     -0.1957
     83  CA        38.4720   15.2270    6.9930 C.3   103  GLY103      0.1869
     84  C         37.5980   14.4130    6.0410 C.2   103  GLY103      0.2309
     85  O         37.9720   13.3970    5.4930 O.2   103  GLY103     -0.2863
     86  N         35.4610   13.1460    2.9030 N.3   105  ALA105     -0.1231
     87  CA        35.7170   12.9980    1.4700 C.3   105  ALA105      0.1679
     88  C         34.8150   11.8790    0.9360 C.2   105  ALA105      0.2434
     89  O         35.3150   10.8520    0.4880 O.2   105  ALA105     -0.2733
     90  CB        37.1660   12.6560    1.1850 C.3   105  ALA105      0.0304
     91  N         33.5210   12.1140    0.9910 N.am  106  PRO106     -0.2718
     92  CA        32.5500   11.1020    0.5840 C.3   106  PRO106      0.1520
     93  C         32.5000   10.9000   -0.9140 C.2   106  PRO106      0.2440
     94  O         33.0230   11.7130   -1.6750 O.2   106  PRO106     -0.2731
     95  CB        31.2260   11.6580    1.1170 C.3   106  PRO106      0.0310
     96  CG        31.4190   13.1430    1.0760 C.3   106  PRO106      0.0237
     97  CD        32.8590   13.3350    1.5330 C.3   106  PRO106      0.0939
     98  N         31.8660    9.8120   -1.3340 N.am  107  PRO107     -0.2727
     99  CA        31.6700    9.5700   -2.7640 C.3   107  PRO107      0.1402
    100  C         31.0390   10.8220   -3.3520 C.2   107  PRO107      0.2269
    101  O         30.1380   11.4080   -2.7550 O.2   107  PRO107     -0.2865
    102  CB        30.7640    8.3500   -2.7830 C.3   107  PRO107      0.0296
    103  CG        31.0550    7.6410   -1.4920 C.3   107  PRO107      0.0237
    104  CD        31.2400    8.7680   -0.4940 C.3   107  PRO107      0.0939
    105  N         26.9800   12.6760    4.0030 N.3   112  HIS112     -0.1241
    106  CA        27.1000   11.8170    5.1740 C.3   112  HIS112      0.1621
    107  C         27.1090   12.6370    6.4560 C.2   112  HIS112      0.2264
    108  O         27.3250   13.8520    6.3840 O.2   112  HIS112     -0.2867
    109  CB        28.4480   11.0640    5.1410 C.3   112  HIS112      0.0745
    110  CG        28.6340   10.0920    4.0290 C.ar  112  HIS112      0.0817
    111  ND1       29.7430    9.2720    3.9810 N.ar  112  HIS112     -0.2268
    112  CD2       27.9030    9.7910    2.9230 C.ar  112  HIS112      0.1154
    113  CE1       29.6900    8.5100    2.8890 C.ar  112  HIS112      0.1986
    114  NE2       28.5750    8.8110    2.2290 N.ar  112  HIS112     -0.2212
    115  N         29.0670   13.5390    9.8410 N.3   114  TYR114     -0.1241
    116  CA        30.4150   13.5620   10.4090 C.3   114  TYR114      0.1605
    117  C         30.1910   13.9590   11.8640 C.2   114  TYR114      0.2264
    118  O         29.9020   15.0940   12.1990 O.2   114  TYR114     -0.2867
    119  CB        31.4090   14.4700    9.6560 C.3   114  TYR114      0.0534
    120  CG        31.5770   13.8850    8.2570 C.ar  114  TYR114     -0.0201
    121  CD1       30.7210   14.2630    7.2260 C.ar  114  TYR114     -0.0009
    122  CD2       32.5500   12.9280    7.9980 C.ar  114  TYR114     -0.0009
    123  CE1       30.8760   13.6910    5.9800 C.ar  114  TYR114      0.0417
    124  CE2       32.7090   12.3580    6.7480 C.ar  114  TYR114      0.0417
    125  CZ        31.8470   12.7530    5.7380 C.ar  114  TYR114      0.1957
    126  OH        31.9690   12.2060    4.4840 O.3   114  TYR114     -0.2866
@<TRIPOS>BOND
     1   100    99    1
     2   100   101    2
     3   102    99    1
     4   102   103    1
     5    99    98    1
     6    94    93    2
     7   103   104    1
     8    98    93   am
     9    98   104    1
    10    93    92    1
    11    89    88    2
    12    92    91    1
    13    92    95    1
    14    88    91   am
    15    88    87    1
    16    30    29    1
    17    30    31    1
    18    91    97    1
    19    96    95    1
    20    96    97    1
    21    90    87    1
    22     4     3    2
    23    10     8   ar
    24    10    11   ar
    25    29    26    1
    26    87    86    1
    27     8     6   ar
    28    28    27    2
    29     3     2    1
    30    31    25    1
    31   114   113   ar
    32   114   112   ar
    33    11     9   ar
    34     6     5    1
    35     6     7   ar
    36    26    27    1
    37    26    25    1
    38     5     2    1
    39   113   111   ar
    40    27    32   am
    41   112   110   ar
    42    73    71   ar
    43    73    72   ar
    44    71    69   ar
    45     2     1    1
    46    25    22   am
    47     9     7   ar
    48   111   110   ar
    49   105   106    1
    50   110   109    1
    51    32    33    1
    52    72    70   ar
    53    33    34    1
    54    33    36    1
    55    69    68   ar
    56   126   125    1
    57    38    36    1
    58    22    21    1
    59    22    23    2
    60    52    51   ar
    61    52    50   ar
    62    21    24    1
    63    21    20    1
    64    51    49   ar
    65    34    35    2
    66   109   106    1
    67   106   107    1
    68    36    37    1
    69    70    68   ar
    70    85    84    2
    71    50    48   ar
    72    68    67    1
    73   125   123   ar
    74   125   124   ar
    75    49    46   ar
    76   123   121   ar
    77    19    17   ar
    78    84    83    1
    79   108   107    2
    80    48    46   ar
    81    48    47   ar
    82    66    65    2
    83    46    44   ar
    84   124   122   ar
    85    80    79   ar
    86    67    64    1
    87    83    82    1
    88    64    65    1
    89    64    63    1
    90    61    62   ar
    91    61    59   ar
    92    82    76   am
    93    17    18   ar
    94    17    16    1
    95    47    45   ar
    96   121   120   ar
    97    78    79    1
    98    78    75    1
    99    44    45   ar
   100    44    43    1
   101    79    81   ar
   102    62    60   ar
   103    43    40    1
   104    76    75    1
   105    76    77    2
   106   122   120   ar
   107    59    58   ar
   108    75    74    1
   109   120   119    1
   110    16    13    1
   111    60    58   ar
   112    40    39    1
   113    40    41    1
   114    15    14    2
   115    58    57    1
   116   119   116    1
   117    14    13    1
   118    13    12    1
   119   115   116    1
   120    41    42    2
   121   116   117    1
   122    57    54    1
   123    54    53    1
   124    54    55    1
   125    56    55    2
   126   117   118    2
