@<TRIPOS>MOLECULE
tmp/1fjmA00.pdb
 223 219 0 0 0
SMALL
GASTEIGER

@<TRIPOS>ATOM
      1  N         89.5430   11.1180   25.8600 N.3    58  ASP58      -0.1239
      2  CA        89.6020   11.9860   27.0470 C.3    58  ASP58       0.1674
      3  C         88.8090   11.5000   28.2560 C.2    58  ASP58       0.2266
      4  O         87.6490   11.1060   28.1220 O.2    58  ASP58      -0.2867
      5  CB        89.1190   13.4020   26.7090 C.3    58  ASP58       0.1410
      6  CG        89.8740   14.0370   25.5510 C.2    58  ASP58       0.3668
      7  OD1       90.4870   13.3180   24.7320 O.co2  58  ASP58      -0.2456
      8  OD2       89.8210   15.2770   25.4410 O.co2  58  ASP58      -0.2456
      9  N         89.5250   13.3110   31.5750 N.3    60  HIS60      -0.1241
     10  CA        89.4300   14.5650   32.3120 C.3    60  HIS60       0.1621
     11  C         88.9150   14.4880   33.7500 C.2    60  HIS60       0.2264
     12  O         87.9190   15.1210   34.1000 O.2    60  HIS60      -0.2867
     13  CB        88.6060   15.5740   31.5130 C.3    60  HIS60       0.0745
     14  CG        89.3560   16.1870   30.3740 C.ar   60  HIS60       0.0817
     15  ND1       90.5370   16.8800   30.5180 N.ar   60  HIS60      -0.2268
     16  CD2       89.0820   16.1920   29.0450 C.ar   60  HIS60       0.1154
     17  CE1       90.9360   17.2740   29.3050 C.ar   60  HIS60       0.1986
     18  NE2       90.0860   16.8810   28.3780 N.ar   60  HIS60      -0.2212
     19  N         89.5010   19.7850   34.4490 N.3    90  ARG90      -0.1245
     20  CA        88.0450   19.7980   34.2870 C.3    90  ARG90       0.1563
     21  C         87.2370   18.9850   35.2930 C.2    90  ARG90       0.2260
     22  O         86.3270   19.5190   35.9260 O.2    90  ARG90      -0.2867
     23  CB        87.6520   19.3470   32.8750 C.3    90  ARG90       0.0307
     24  CG        88.2670   20.1470   31.7550 C.3    90  ARG90       0.0489
     25  CD        87.4540   21.3900   31.4470 C.3    90  ARG90       0.2205
     26  NE        87.8090   21.9330   30.1360 N.pl3  90  ARG90      -0.0865
     27  CZ        87.6740   23.2080   29.7830 C.cat  90  ARG90       0.5346
     28  NH1       87.1860   24.1010   30.6440 N.pl3  90  ARG90       0.1354
     29  NH2       88.0420   23.5880   28.5660 N.pl3  90  ARG90       0.1354
     30  N         97.2120   16.9580   25.4450 N.3   118  ASN118     -0.1225
     31  CA        97.6370   18.3500   25.6300 C.3   118  ASN118      0.1785
     32  C         97.4890   18.8360   27.0700 C.2   118  ASN118      0.2597
     33  O         98.1200   19.8040   27.4640 O.2   118  ASN118     -0.2718
     34  CB        96.9200   19.2980   24.6600 C.3   118  ASN118      0.1169
     35  CG        95.4160   19.2590   24.7960 C.2   118  ASN118      0.2627
     36  OD1       94.8120   18.1950   24.7870 O.2   118  ASN118     -0.2716
     37  ND2       94.8000   20.4260   24.9140 N.am  118  ASN118     -0.0877
     38  N         96.6790   18.1440   27.8650 N.am  119  HIS119     -0.1975
     39  CA        96.4950   18.5210   29.2610 C.3   119  HIS119      0.1656
     40  C         97.5420   17.9420   30.2040 C.2   119  HIS119      0.2291
     41  O         97.5880   18.2970   31.3790 O.2   119  HIS119     -0.2864
     42  CB        95.0760   18.2160   29.7300 C.3   119  HIS119      0.0771
     43  CG        94.0540   19.1320   29.1320 C.ar  119  HIS119      0.0820
     44  ND1       93.3740   20.0730   29.8720 N.ar  119  HIS119     -0.2267
     45  CD2       93.6370   19.2880   27.8540 C.ar  119  HIS119      0.1154
     46  CE1       92.5850   20.7720   29.0780 C.ar  119  HIS119      0.1986
     47  NE2       92.7270   20.3150   27.8490 N.ar  119  HIS119     -0.2212
     48  N        100.3920   18.7030   30.6360 N.3   121  CYS121     -0.1235
     49  CA       101.3450   19.7820   30.4270 C.3   121  CYS121      0.1677
     50  C        101.1200   20.8030   31.5570 C.2   121  CYS121      0.2270
     51  O         99.9850   21.1910   31.8450 O.2   121  CYS121     -0.2867
     52  CB       101.1000   20.4020   29.0390 C.3   121  CYS121      0.0956
     53  SG       102.2490   21.7260   28.5350 S.3   121  CYS121     -0.0801
     54  N        101.6290   24.2070   32.1650 N.3   123  SER123     -0.1202
     55  CA       100.9060   25.4620   31.9370 C.3   123  SER123      0.2020
     56  C         99.3990   25.3010   31.8120 C.2   123  SER123      0.2618
     57  O         98.6360   26.0790   32.3870 O.2   123  SER123     -0.2717
     58  CB       101.4560   26.1720   30.7060 C.3   123  SER123      0.2103
     59  OG       102.8110   26.5160   30.9200 O.3   123  SER123     -0.2182
     60  N         98.9650   24.2780   31.0850 N.am  124  ILE124     -0.1979
     61  CA        97.5400   24.0460   30.9180 C.3   124  ILE124      0.1595
     62  C         96.8920   23.6130   32.2430 C.2   124  ILE124      0.2287
     63  O         95.7640   24.0050   32.5450 O.2   124  ILE124     -0.2864
     64  CB        97.2730   23.0250   29.7910 C.3   124  ILE124      0.0276
     65  CG1       95.8450   23.1740   29.2780 C.3   124  ILE124      0.0022
     66  CG2       97.4750   21.6170   30.2980 C.3   124  ILE124      0.0022
     67  CD1       95.6080   22.4810   27.9610 C.3   124  ILE124      0.0001
     68  N         95.7020   26.3560   34.6050 N.3   127  ILE127     -0.1231
     69  CA        94.4630   26.9930   34.2220 C.3   127  ILE127      0.1692
     70  C         93.2420   26.1020   34.3220 C.2   127  ILE127      0.2592
     71  O         92.1890   26.5520   34.7530 O.2   127  ILE127     -0.2718
     72  CB        94.5550   27.5260   32.7760 C.3   127  ILE127      0.0266
     73  CG1       95.6760   28.5530   32.6720 C.3   127  ILE127      0.0019
     74  CG2       93.2320   28.1480   32.3460 C.3   127  ILE127      0.0020
     75  CD1       95.5350   29.7070   33.6330 C.3   127  ILE127      0.0001
     76  N         93.3850   24.8310   33.9660 N.am  128  TYR128     -0.1976
     77  CA        92.2350   23.9350   33.9460 C.3   128  TYR128      0.1639
     78  C         91.8930   23.0410   35.1280 C.2   128  TYR128      0.2290
     79  O         91.0330   22.1640   35.0080 O.2   128  TYR128     -0.2864
     80  CB        92.2040   23.1610   32.6250 C.3   128  TYR128      0.0560
     81  CG        92.0160   24.0800   31.4500 C.ar  128  TYR128     -0.0198
     82  CD1       90.7430   24.4860   31.0630 C.ar  128  TYR128     -0.0009
     83  CD2       93.1110   24.6090   30.7750 C.ar  128  TYR128     -0.0009
     84  CE1       90.5650   25.4000   30.0370 C.ar  128  TYR128      0.0417
     85  CE2       92.9440   25.5300   29.7480 C.ar  128  TYR128      0.0417
     86  CZ        91.6670   25.9220   29.3880 C.ar  128  TYR128      0.1957
     87  OH        91.4890   26.8570   28.3990 O.3   128  TYR128     -0.2866
     88  N        105.5640   20.4010   26.2510 N.3   189  VAL189     -0.1231
     89  CA       104.9640   20.6060   24.9420 C.3   189  VAL189      0.1678
     90  C        105.2470   22.0260   24.4580 C.2   189  VAL189      0.2434
     91  O        104.9570   22.9990   25.1570 O.2   189  VAL189     -0.2733
     92  CB       103.4450   20.3950   24.9960 C.3   189  VAL189      0.0265
     93  CG1      102.8300   20.5700   23.6090 C.3   189  VAL189      0.0020
     94  CG2      103.1280   19.0290   25.5740 C.3   189  VAL189      0.0020
     95  N        105.8710   22.1590   23.2820 N.am  190  PRO190     -0.2718
     96  CA       106.1820   23.4830   22.7290 C.3   190  PRO190      0.1535
     97  C        104.9300   24.1940   22.1970 C.2   190  PRO190      0.2598
     98  O        103.8470   23.6030   22.0990 O.2   190  PRO190     -0.2715
     99  CB       107.1450   23.1550   21.5850 C.3   190  PRO190      0.0310
    100  CG       107.7530   21.8460   22.0020 C.3   190  PRO190      0.0237
    101  CD       106.5580   21.1070   22.5190 C.3   190  PRO190      0.0939
    102  N        105.1040   25.4620   21.8330 N.am  191  ASP191     -0.1972
    103  CA       104.0290   26.2790   21.2810 C.3   191  ASP191      0.1709
    104  C        103.8140   26.0180   19.7980 C.2   191  ASP191      0.2293
    105  O        102.7920   26.4130   19.2340 O.2   191  ASP191     -0.2864
    106  CB       104.3460   27.7630   21.4710 C.3   191  ASP191      0.1436
    107  CG       103.7660   28.3220   22.7470 C.2   191  ASP191      0.3671
    108  OD1      103.3010   27.5260   23.5980 O.co2 191  ASP191     -0.2456
    109  OD2      103.7640   29.5650   22.8930 O.co2 191  ASP191     -0.2456
    110  N         97.7670   18.7420   19.6670 N.3   200  TRP200     -0.1241
    111  CA        96.7880   19.8150   19.5040 C.3   200  TRP200      0.1605
    112  C         95.9200   19.9210   18.2500 C.2   200  TRP200      0.2264
    113  O         94.8240   20.4840   18.3270 O.2   200  TRP200     -0.2867
    114  CB        97.4840   21.1640   19.6990 C.3   200  TRP200      0.0550
    115  CG        97.7890   21.5180   21.1130 C.ar  200  TRP200      0.0003
    116  CD1       98.9580   21.2980   21.7790 C.ar  200  TRP200      0.0946
    117  CD2       96.9380   22.2360   22.0150 C.ar  200  TRP200      0.0152
    118  NE1       98.8940   21.8500   23.0400 N.ar  200  TRP200     -0.2442
    119  CE2       97.6650   22.4330   23.2110 C.ar  200  TRP200      0.0810
    120  CE3       95.6310   22.7390   21.9260 C.ar  200  TRP200      0.0012
    121  CZ2       97.1330   23.1080   24.3130 C.ar  200  TRP200      0.0191
    122  CZ3       95.0990   23.4120   23.0250 C.ar  200  TRP200      0.0001
    123  CH2       95.8550   23.5900   24.2030 C.ar  200  TRP200      0.0015
    124  N         91.3100   27.3240   15.7090 N.3   214  ASP214     -0.1225
    125  CA        90.6690   28.2910   16.5940 C.3   214  ASP214      0.1805
    126  C         91.0930   28.1630   18.0550 C.2   214  ASP214      0.2598
    127  O         90.6420   28.9340   18.8980 O.2   214  ASP214     -0.2718
    128  CB        89.1490   28.1820   16.4990 C.3   214  ASP214      0.1424
    129  CG        88.6190   28.5480   15.1270 C.2   214  ASP214      0.3668
    130  OD1       89.3730   29.1500   14.3260 O.co2 214  ASP214     -0.2456
    131  OD2       87.4390   28.2310   14.8540 O.co2 214  ASP214     -0.2456
    132  N         91.9030   27.1560   18.3680 N.am  215  ARG215     -0.1966
    133  CA        92.3820   26.9710   19.7330 C.3   215  ARG215      0.1729
    134  C         93.5020   27.9680   20.0160 C.2   215  ARG215      0.2617
    135  O         93.9310   28.1270   21.1530 O.2   215  ARG215     -0.2715
    136  CB        92.8890   25.5450   19.9380 C.3   215  ARG215      0.0348
    137  CG        91.8280   24.4670   19.7850 C.3   215  ARG215      0.0492
    138  CD        92.4280   23.1210   20.1120 C.3   215  ARG215      0.2205
    139  NE        91.5520   22.0010   19.7900 N.pl3 215  ARG215     -0.0865
    140  CZ        90.7360   21.3950   20.6490 C.cat 215  ARG215      0.5346
    141  NH1       90.6550   21.8010   21.9090 N.pl3 215  ARG215      0.1354
    142  NH2       90.0480   20.3290   20.2570 N.pl3 215  ARG215      0.1354
    143  N         93.9830   28.6200   18.9610 N.am  216  GLY216     -0.1940
    144  CA        95.0410   29.5960   19.1060 C.3   216  GLY216      0.2014
    145  C         96.4090   28.9720   18.9950 C.2   216  GLY216      0.2638
    146  O         97.4240   29.6480   19.1770 O.2   216  GLY216     -0.2714
    147  N         96.4440   27.6900   18.6550 N.am  217  VAL217     -0.1977
    148  CA        97.7030   26.9720   18.5150 C.3   217  VAL217      0.1596
    149  C         97.4940   25.8090   17.5360 C.2   217  VAL217      0.2287
    150  O         96.3590   25.3580   17.3320 O.2   217  VAL217     -0.2864
    151  CB        98.1740   26.4520   19.9070 C.3   217  VAL217      0.0276
    152  CG1       97.1330   25.5050   20.5020 C.3   217  VAL217      0.0022
    153  CG2       99.5200   25.7770   19.8090 C.3   217  VAL217      0.0022
    154  N         90.8450   14.3040   21.7520 N.3   242  HIS242     -0.1241
    155  CA        90.9470   15.7630   21.7760 C.3   242  HIS242      0.1621
    156  C         89.6580   16.5810   21.6570 C.2   242  HIS242      0.2264
    157  O         89.5190   17.5930   22.3400 O.2   242  HIS242     -0.2867
    158  CB        91.9630   16.1630   20.6890 C.3   242  HIS242      0.0745
    159  CG        92.5480   17.5310   20.8390 C.ar  242  HIS242      0.0817
    160  ND1       92.8770   18.0510   22.0670 N.ar  242  HIS242     -0.2268
    161  CD2       92.9540   18.3840   19.8670 C.ar  242  HIS242      0.1154
    162  CE1       93.4760   19.1990   21.8180 C.ar  242  HIS242      0.1986
    163  NE2       93.5440   19.4420   20.4990 N.ar  242  HIS242     -0.2212
    164  N         85.3650   17.0440   21.7540 N.3   244  VAL244     -0.1245
    165  CA        84.1370   16.5300   22.3350 C.3   244  VAL244      0.1561
    166  C         83.1820   16.2100   21.1980 C.2   244  VAL244      0.2260
    167  O         82.8600   17.0780   20.3950 O.2   244  VAL244     -0.2867
    168  CB        83.4490   17.5740   23.2380 C.3   244  VAL244      0.0252
    169  CG1       82.2850   16.9350   23.9700 C.3   244  VAL244      0.0019
    170  CG2       84.4460   18.1810   24.2130 C.3   244  VAL244      0.0019
    171  N         86.0760   10.2420   22.5050 N.3   261  PHE261     -0.1241
    172  CA        85.9470   11.0840   23.6900 C.3   261  PHE261      0.1605
    173  C         85.2230   10.1980   24.7040 C.2   261  PHE261      0.2264
    174  O         84.0550    9.8380   24.5180 O.2   261  PHE261     -0.2867
    175  CB        85.1490   12.3610   23.3940 C.3   261  PHE261      0.0534
    176  CG        85.3630   13.4480   24.4130 C.ar  261  PHE261     -0.0203
    177  CD1       86.4450   14.3140   24.3040 C.ar  261  PHE261     -0.0042
    178  CD2       84.5040   13.5860   25.4970 C.ar  261  PHE261     -0.0042
    179  CE1       86.6730   15.3060   25.2650 C.ar  261  PHE261     -0.0003
    180  CE2       84.7230   14.5720   26.4640 C.ar  261  PHE261     -0.0003
    181  CZ        85.8110   15.4320   26.3470 C.ar  261  PHE261     -0.0000
    182  N         80.1790   15.9090   29.5900 N.3   266  TYR266     -0.1227
    183  CA        81.2840   16.8420   29.7440 C.3   266  TYR266      0.1736
    184  C         80.9200   18.2200   29.2020 C.2   266  TYR266      0.2596
    185  O         81.2150   19.2410   29.8230 O.2   266  TYR266     -0.2718
    186  CB        82.4870   16.3140   28.9570 C.3   266  TYR266      0.0548
    187  CG        83.6840   17.2460   28.8690 C.ar  266  TYR266     -0.0200
    188  CD1       83.8160   18.1630   27.8180 C.ar  266  TYR266     -0.0009
    189  CD2       84.7300   17.1490   29.7880 C.ar  266  TYR266     -0.0009
    190  CE1       84.9700   18.9470   27.6830 C.ar  266  TYR266      0.0417
    191  CE2       85.8780   17.9260   29.6600 C.ar  266  TYR266      0.0417
    192  CZ        85.9970   18.8140   28.6070 C.ar  266  TYR266      0.1957
    193  OH        87.1770   19.5040   28.4590 O.3   266  TYR266     -0.2866
    194  N         80.3160   18.2230   28.0130 N.am  267  CYS267     -0.1956
    195  CA        79.9470   19.4390   27.2950 C.3   267  CYS267      0.1843
    196  C         78.7430   20.2380   27.7820 C.2   267  CYS267      0.2626
    197  O         77.7170   19.6890   28.1900 O.2   267  CYS267     -0.2714
    198  CB        79.7840   19.1330   25.7970 C.3   267  CYS267      0.0997
    199  SG        79.8590   20.5850   24.6810 S.3   267  CYS267     -0.0797
    200  N         78.8820   21.5570   27.6990 N.am  268  GLY268     -0.1940
    201  CA        77.8150   22.4500   28.1030 C.3   268  GLY268      0.2014
    202  C         76.8310   22.6850   26.9720 C.2   268  GLY268      0.2639
    203  O         75.6430   22.8920   27.2090 O.2   268  GLY268     -0.2714
    204  N         77.3240   22.6660   25.7370 N.am  269  GLU269     -0.1963
    205  CA        76.4600   22.8820   24.5860 C.3   269  GLU269      0.1733
    206  C         75.5940   21.6700   24.2800 C.2   269  GLU269      0.2616
    207  O         74.5610   21.7970   23.6190 O.2   269  GLU269     -0.2715
    208  CB        77.2750   23.2730   23.3550 C.3   269  GLU269      0.0429
    209  CG        77.9610   24.6210   23.4790 C.3   269  GLU269      0.1163
    210  CD        78.8030   24.9650   22.2620 C.2   269  GLU269      0.3649
    211  OE1       79.6080   24.1120   21.8110 O.co2 269  GLU269     -0.2457
    212  OE2       78.6600   26.0990   21.7560 O.co2 269  GLU269     -0.2457
    213  N         76.0140   20.4960   24.7480 N.am  270  PHE270     -0.1974
    214  CA        75.2480   19.2730   24.5200 C.3   270  PHE270      0.1639
    215  C         75.6380   18.1320   25.4570 C.2   270  PHE270      0.2290
    216  O         76.7440   18.1110   26.0020 O.2   270  PHE270     -0.2864
    217  CB        75.3370   18.8220   23.0490 C.3   270  PHE270      0.0560
    218  CG        76.7380   18.6180   22.5540 C.ar  270  PHE270     -0.0200
    219  CD1       77.4130   17.4290   22.8040 C.ar  270  PHE270     -0.0042
    220  CD2       77.3820   19.6160   21.8330 C.ar  270  PHE270     -0.0042
    221  CE1       78.7130   17.2380   22.3430 C.ar  270  PHE270     -0.0003
    222  CE2       78.6850   19.4350   21.3660 C.ar  270  PHE270     -0.0003
    223  CZ        79.3510   18.2420   21.6230 C.ar  270  PHE270     -0.0000
@<TRIPOS>BOND
     1   130   129   ar
     2   131   129   ar
     3   129   128    1
     4   124   125    1
     5   128   125    1
     6   125   126    1
     7   150   149    2
     8   149   148    1
     9   126   132   am
    10   126   127    2
    11   112   113    2
    12   112   111    1
    13   132   133    1
    14   148   147    1
    15   148   151    1
    16   147   145   am
    17   143   144    1
    18   143   134   am
    19   145   144    1
    20   145   146    2
    21   105   104    2
    22   111   110    1
    23   111   114    1
    24   114   115    1
    25   133   136    1
    26   133   134    1
    27   137   136    1
    28   137   138    1
    29   139   138    1
    30   139   140    2
    31   104   103    1
    32   153   151    1
    33   161   163   ar
    34   161   159   ar
    35   151   152    1
    36   134   135    2
    37   142   140    1
    38   167   166    2
    39   163   162   ar
    40   140   141    1
    41   158   159    1
    42   158   155    1
    43   159   160   ar
    44   115   116   ar
    45   115   117   ar
    46   166   165    1
    47   103   106    1
    48   103   102    1
    49   222   223   ar
    50   222   220   ar
    51   106   107    1
    52    99   100    1
    53    99    96    1
    54   223   221   ar
    55   156   155    1
    56   156   157    2
    57   154   155    1
    58   164   165    1
    59   212   210   ar
    60   116   118   ar
    61   211   210   ar
    62   162   160   ar
    63   220   218   ar
    64   102    97   am
    65   120   117   ar
    66   120   122   ar
    67   100   101    1
    68   117   119   ar
    69    98    97    2
    70    97    96    1
    71   210   209    1
    72   165   168    1
    73   221   219   ar
    74   171   172    1
    75   101    95    1
    76   218   219   ar
    77   218   217    1
    78    96    95    1
    79   107   109   ar
    80   107   108   ar
    81   122   123   ar
    82   118   119   ar
    83   217   214    1
    84   119   121   ar
    85   168   169    1
    86   168   170    1
    87    95    90   am
    88   208   209    1
    89   208   205    1
    90   175   172    1
    91   175   176    1
    92    93    92    1
    93   207   206    2
    94   172   173    1
    95   123   121   ar
    96   206   205    1
    97   206   213   am
    98   177   176   ar
    99   177   179   ar
   100   176   178   ar
   101    90    89    1
   102    90    91    2
   103   174   173    2
   104   214   213    1
   105   214   215    1
   106   205   204    1
   107    34    35    1
   108    34    31    1
   109   199   198    1
   110     7     6   ar
   111    36    35    2
   112    35    37   am
   113    89    92    1
   114    89    88    1
   115    92    94    1
   116   179   181   ar
   117     8     6   ar
   118    30    31    1
   119   215   216    2
   120   178   180   ar
   121     6     5    1
   122    31    32    1
   123   204   202   am
   124   198   195    1
   125     1     2    1
   126   181   180   ar
   127     5     2    1
   128   202   203    2
   129   202   201    1
   130     2     3    1
   131    32    33    2
   132    32    38   am
   133   195   196    1
   134   195   194    1
   135   190   188   ar
   136   190   192   ar
   137   200   196   am
   138   200   201    1
   139   196   197    2
   140   188   187   ar
   141    47    45   ar
   142    47    46   ar
   143    45    43   ar
   144    38    39    1
   145    67    65    1
   146   194   184   am
   147     4     3    2
   148    18    16   ar
   149    18    17   ar
   150    87    86    1
   151   193   192    1
   152    53    52    1
   153    29    27    1
   154   192   191   ar
   155   187   186    1
   156   187   189   ar
   157   186   183    1
   158    52    49    1
   159    16    14   ar
   160    46    44   ar
   161    43    42    1
   162    43    44   ar
   163   184   183    1
   164   184   185    2
   165    39    42    1
   166    39    40    1
   167    65    64    1
   168    17    15   ar
   169    86    85   ar
   170    86    84   ar
   171   182   183    1
   172   191   189   ar
   173    85    83   ar
   174    27    26    2
   175    27    28    1
   176    64    66    1
   177    64    61    1
   178    84    82   ar
   179    26    25    1
   180    40    41    2
   181    14    15   ar
   182    14    13    1
   183    49    48    1
   184    49    50    1
   185    58    59    1
   186    58    55    1
   187    83    81   ar
   188    61    60    1
   189    61    62    1
   190    82    81   ar
   191    60    56   am
   192    25    24    1
   193    81    80    1
   194    13    10    1
   195    50    51    2
   196     9    10    1
   197    24    23    1
   198    56    55    1
   199    56    57    2
   200    55    54    1
   201    62    63    2
   202    10    11    1
   203    74    72    1
   204    80    77    1
   205    73    72    1
   206    73    75    1
   207    72    69    1
   208    23    20    1
   209    11    12    2
   210    77    76    1
   211    77    78    1
   212    76    70   am
   213    69    70    1
   214    69    68    1
   215    20    19    1
   216    20    21    1
   217    70    71    2
   218    79    78    2
   219    21    22    2
