@<TRIPOS>MOLECULE
tmp/1fjsA00.pdb
 215 213 0 0 0
SMALL
GASTEIGER

@<TRIPOS>ATOM
      1  N         13.6530   10.9250   14.6180 N.3    42  HIS42      -0.1241
      2  CA        12.2080   10.9420   14.6010 C.3    42  HIS42       0.1621
      3  C         11.6140   12.3180   14.9070 C.2    42  HIS42       0.2264
      4  O         10.4640   12.5650   14.5610 O.2    42  HIS42      -0.2867
      5  CB        11.6190    9.8330   15.4980 C.3    42  HIS42       0.0745
      6  CG        11.3870   10.2420   16.9250 C.ar   42  HIS42       0.0817
      7  ND1       12.1660    9.7840   17.9630 N.ar   42  HIS42      -0.2268
      8  CD2       10.4440   11.0400   17.4840 C.ar   42  HIS42       0.1154
      9  CE1       11.7210   10.2860   19.1040 C.ar   42  HIS42       0.1986
     10  NE2       10.6760   11.0500   18.8370 N.ar   42  HIS42      -0.2212
     11  N          8.5140   15.9390   13.1980 N.3    46  GLN46      -0.1245
     12  CA         7.5350   16.6390   14.0150 C.3    46  GLN46       0.1566
     13  C          7.3500   18.1230   13.6830 C.2    46  GLN46       0.2260
     14  O          6.5440   18.8030   14.3310 O.2    46  GLN46      -0.2867
     15  CB         7.8820   16.4880   15.4950 C.3    46  GLN46       0.0367
     16  CG         8.4520   15.1370   15.8790 C.3    46  GLN46       0.0905
     17  CD         7.4190   14.0430   15.9300 C.2    46  GLN46       0.2608
     18  OE1        6.3610   14.2110   16.5390 O.2    46  GLN46      -0.2717
     19  NE2        7.7270   12.8960   15.3230 N.am   46  GLN46      -0.0878
     20  N         11.0920    4.4000   10.8050 N.3    82  LYS82      -0.1231
     21  CA         9.9280    4.7610   11.5980 C.3    82  LYS82       0.1693
     22  C          9.2340    3.5630   12.2400 C.2    82  LYS82       0.2592
     23  O          8.7050    3.6550   13.3500 O.2    82  LYS82      -0.2718
     24  CB         8.9220    5.5490   10.7400 C.3    82  LYS82       0.0285
     25  CG         9.1070    5.4490    9.1990 C.3    82  LYS82       0.0035
     26  CD        10.1780    6.4300    8.6870 C.3    82  LYS82       0.0206
     27  CE        10.5180    6.2670    7.2040 C.3    82  LYS82       0.1093
     28  NZ        11.5750    7.2550    6.8240 N.3    82  LYS82      -0.1314
     29  N          9.2330    2.4380   11.5420 N.am   83  GLU83      -0.1966
     30  CA         8.5670    1.2430   12.0420 C.3    83  GLU83       0.1733
     31  C          9.2350    0.6620   13.2670 C.2    83  GLU83       0.2617
     32  O          8.5630    0.0570   14.1050 O.2    83  GLU83      -0.2715
     33  CB         8.4580    0.1790   10.9200 C.3    83  GLU83       0.0429
     34  CG         8.3590   -1.3140   11.3670 C.3    83  GLU83       0.1163
     35  CD         7.0070   -1.7320   11.9720 C.2    83  GLU83       0.3649
     36  OE1        5.9680   -1.6070   11.2840 O.co2  83  GLU83      -0.2457
     37  OE2        6.9900   -2.2250   13.1250 O.co2  83  GLU83      -0.2457
     38  N         10.5390    0.8770   13.4000 N.am   84  THR84      -0.1937
     39  CA        11.2560    0.3040   14.5200 C.3    84  THR84       0.2028
     40  C         11.8830    1.3370   15.4200 C.2    84  THR84       0.2642
     41  O         12.1210    1.0680   16.5990 O.2    84  THR84      -0.2714
     42  CB        12.3990   -0.5590   14.0160 C.3    84  THR84       0.1808
     43  OG1       13.2410    0.2410   13.1810 O.3    84  THR84      -0.2208
     44  CG2       11.8800   -1.7520   13.2030 C.3    84  THR84       0.0379
     45  N         12.1170    2.5190   14.8550 N.am   85  TYR85      -0.1973
     46  CA        12.8070    3.6360   15.5220 C.3    85  TYR85       0.1639
     47  C         14.3030    3.3050   15.6320 C.2    85  TYR85       0.2290
     48  O         15.0130    3.8440   16.4980 O.2    85  TYR85      -0.2864
     49  CB        12.2290    3.9380   16.9060 C.3    85  TYR85       0.0560
     50  CG        11.1500    4.9690   16.8680 C.ar   85  TYR85      -0.0198
     51  CD1       10.1140    4.8740   15.9470 C.ar   85  TYR85      -0.0009
     52  CD2       11.1420    6.0370   17.7650 C.ar   85  TYR85      -0.0009
     53  CE1        9.0980    5.8090   15.9150 C.ar   85  TYR85       0.0417
     54  CE2       10.1380    6.9780   17.7480 C.ar   85  TYR85       0.0417
     55  CZ         9.1110    6.8570   16.8220 C.ar   85  TYR85       0.1957
     56  OH         8.0850    7.7730   16.8040 O.3    85  TYR85      -0.2866
     57  N          6.6690   16.3110   28.9240 N.3   132  ARG132     -0.1245
     58  CA         5.5400   16.1490   29.8240 C.3   132  ARG132      0.1563
     59  C          5.9600   15.7110   31.2110 C.2   132  ARG132      0.2260
     60  O          6.8090   14.8380   31.3560 O.2   132  ARG132     -0.2867
     61  CB         4.5630   15.1120   29.2840 C.3   132  ARG132      0.0307
     62  CG         3.9180   15.5210   27.9860 C.3   132  ARG132      0.0489
     63  CD         2.9820   14.4500   27.4780 C.3   132  ARG132      0.2205
     64  NE         2.2430   14.9420   26.3260 N.pl3 132  ARG132     -0.0865
     65  CZ         1.0180   14.5490   26.0030 C.cat 132  ARG132      0.5346
     66  NH1        0.3900   13.6420   26.7430 N.pl3 132  ARG132      0.1354
     67  NH2        0.4210   15.0770   24.9470 N.pl3 132  ARG132      0.1354
     68  N          2.3420   11.4860   31.9420 N.3   135  GLU135     -0.1245
     69  CA         2.0670   10.8520   30.6540 C.3   135  GLU135      0.1567
     70  C          0.9610   11.5380   29.8180 C.2   135  GLU135      0.2260
     71  O          1.0950   11.6910   28.5950 O.2   135  GLU135     -0.2867
     72  CB         1.7300    9.3850   30.8800 C.3   135  GLU135      0.0388
     73  CG         1.8500    8.5310   29.6460 C.3   135  GLU135      0.1160
     74  CD         1.3560    7.1240   29.8680 C.2   135  GLU135      0.3649
     75  OE1        1.8480    6.4210   30.7900 O.co2 135  GLU135     -0.2457
     76  OE2        0.4660    6.7300   29.0930 O.co2 135  GLU135     -0.2457
     77  N          8.0240   -3.9780   21.9230 N.3   162  PHE162     -0.1227
     78  CA         8.5700   -3.6160   20.6240 C.3   162  PHE162      0.1736
     79  C         10.0080   -4.0840   20.5860 C.2   162  PHE162      0.2595
     80  O         10.6020   -4.3720   21.6270 O.2   162  PHE162     -0.2718
     81  CB         8.5020   -2.1020   20.4230 C.3   162  PHE162      0.0547
     82  CG         7.1130   -1.5760   20.4010 C.ar  162  PHE162     -0.0202
     83  CD1        6.3890   -1.5600   19.2200 C.ar  162  PHE162     -0.0042
     84  CD2        6.4950   -1.1650   21.5730 C.ar  162  PHE162     -0.0042
     85  CE1        5.0560   -1.1450   19.2110 C.ar  162  PHE162     -0.0003
     86  CE2        5.1660   -0.7520   21.5740 C.ar  162  PHE162     -0.0003
     87  CZ         4.4440   -0.7430   20.3970 C.ar  162  PHE162     -0.0000
     88  N         10.5680   -4.1590   19.3900 N.am  163  ILE163     -0.1980
     89  CA        11.9450   -4.6000   19.2100 C.3   163  ILE163      0.1595
     90  C         12.9450   -3.5830   19.7760 C.2   163  ILE163      0.2287
     91  O         12.8290   -2.3720   19.5470 O.2   163  ILE163     -0.2864
     92  CB        12.2850   -4.8070   17.7010 C.3   163  ILE163      0.0276
     93  CG1       11.3560   -5.8550   17.0790 C.3   163  ILE163      0.0022
     94  CG2       13.7600   -5.2120   17.5200 C.3   163  ILE163      0.0022
     95  CD1       11.1160   -5.6260   15.5870 C.3   163  ILE163      0.0001
     96  N         10.4840    8.9720   34.8630 N.3   179  ASP179     -0.1225
     97  CA        10.9130    8.6240   33.4970 C.3   179  ASP179      0.1805
     98  C         10.9150    9.8350   32.5820 C.2   179  ASP179      0.2598
     99  O         10.4320   10.9010   32.9440 O.2   179  ASP179     -0.2718
    100  CB         9.9210    7.5740   32.9540 C.3   179  ASP179      0.1424
    101  CG        10.2840    7.0190   31.5800 C.2   179  ASP179      0.3668
    102  OD1       11.4470    7.1380   31.1340 O.co2 179  ASP179     -0.2456
    103  OD2        9.3730    6.4190   30.9540 O.co2 179  ASP179     -0.2456
    104  N         11.5780    9.7140   31.4420 N.am  180  ALA180     -0.1966
    105  CA        11.5340   10.7750   30.4520 C.3   180  ALA180      0.1728
    106  C         10.0920   10.6580   29.9250 C.2   180  ALA180      0.2616
    107  O          9.3570    9.7360   30.2950 O.2   180  ALA180     -0.2715
    108  CB        12.5390   10.5100   29.3250 C.3   180  ALA180      0.0334
    109  N          9.6780   11.5610   29.0570 N.am  181  CYS181     -0.1954
    110  CA         8.3290   11.4890   28.5570 C.3   181  CYS181      0.1843
    111  C          8.2500   12.2710   27.2640 C.2   181  CYS181      0.2625
    112  O          9.2540   12.8130   26.7860 O.2   181  CYS181     -0.2714
    113  CB         7.3620   12.0550   29.6050 C.3   181  CYS181      0.0997
    114  SG         5.5960   11.7670   29.2790 S.3   181  CYS181     -0.0797
    115  N          7.0670   12.2990   26.6710 N.am  182  GLN182     -0.1977
    116  CA         6.8500   13.0110   25.4220 C.3   182  GLN182      0.1601
    117  C          7.2810   14.4810   25.5080 C.2   182  GLN182      0.2287
    118  O          6.9180   15.2010   26.4560 O.2   182  GLN182     -0.2864
    119  CB         5.3830   12.9000   25.0480 C.3   182  GLN182      0.0394
    120  CG         5.0680   13.4040   23.6840 C.3   182  GLN182      0.0908
    121  CD         3.6130   13.2320   23.3610 C.2   182  GLN182      0.2608
    122  OE1        2.7950   12.9470   24.2440 O.2   182  GLN182     -0.2717
    123  NE2        3.2750   13.3670   22.0880 N.am  182  GLN182     -0.0878
    124  N         11.9960   13.8410   23.8840 N.3   185  SER185     -0.1217
    125  CA        12.6510   13.1500   22.7660 C.3   185  SER185      0.1889
    126  C         13.7020   13.9830   22.0600 C.2   185  SER185      0.2288
    127  O         13.4800   15.1540   21.7800 O.2   185  SER185     -0.2866
    128  CB        11.6120   12.7050   21.7330 C.3   185  SER185      0.2089
    129  OG        10.5100   12.0660   22.3580 O.3   185  SER185     -0.2183
    130  N         17.2380   10.7130   24.0620 N.3   203  VAL203     -0.1231
    131  CA        15.8870   10.2830   24.4560 C.3   203  VAL203      0.1692
    132  C         15.1930    9.8380   23.1550 C.2   203  VAL203      0.2593
    133  O         15.0210   10.6390   22.2270 O.2   203  VAL203     -0.2718
    134  CB        15.0850   11.4480   25.1510 C.3   203  VAL203      0.0266
    135  CG1       13.6500   10.9850   25.4430 C.3   203  VAL203      0.0020
    136  CG2       15.7890   11.8980   26.4180 C.3   203  VAL203      0.0020
    137  N         14.7960    8.5680   23.0780 N.am  204  SER204     -0.1938
    138  CA        14.2010    8.0390   21.8620 C.3   204  SER204      0.2055
    139  C         12.7000    7.7390   21.9300 C.2   204  SER204      0.2643
    140  O         11.9130    8.3330   21.1790 O.2   204  SER204     -0.2714
    141  CB        14.9770    6.8090   21.3830 C.3   204  SER204      0.2130
    142  OG        14.6200    6.4750   20.0600 O.3   204  SER204     -0.2179
    143  N         12.2920    6.8210   22.7950 N.am  205  TRP205     -0.1959
    144  CA        10.8820    6.5310   22.8760 C.3   205  TRP205      0.1771
    145  C         10.5580    5.7920   24.1240 C.2   205  TRP205      0.2620
    146  O         11.4360    5.5030   24.9430 O.2   205  TRP205     -0.2715
    147  CB        10.4310    5.7250   21.6570 C.3   205  TRP205      0.0590
    148  CG        11.1600    4.4160   21.4760 C.ar  205  TRP205      0.0006
    149  CD1       12.3350    4.2260   20.8000 C.ar  205  TRP205      0.0946
    150  CD2       10.7200    3.1110   21.8890 C.ar  205  TRP205      0.0152
    151  NE1       12.6430    2.8880   20.7600 N.ar  205  TRP205     -0.2442
    152  CE2       11.6730    2.1750   21.4200 C.ar  205  TRP205      0.0810
    153  CE3        9.6000    2.6350   22.6040 C.ar  205  TRP205      0.0012
    154  CZ2       11.5450    0.7920   21.6410 C.ar  205  TRP205      0.0191
    155  CZ3        9.4690    1.2590   22.8210 C.ar  205  TRP205      0.0001
    156  CH2       10.4400    0.3530   22.3410 C.ar  205  TRP205      0.0015
    157  N          9.2850    5.4330   24.2400 N.am  206  GLY206     -0.1940
    158  CA         8.8380    4.7090   25.4130 C.3   206  GLY206      0.2014
    159  C          7.3590    4.4030   25.3510 C.2   206  GLY206      0.2639
    160  O          6.5770    5.1630   24.7650 O.2   206  GLY206     -0.2714
    161  N          6.9820    3.2600   25.9200 N.am  207  GLU207     -0.1963
    162  CA         5.5920    2.8290   25.9720 C.3   207  GLU207      0.1733
    163  C          4.9540    3.6220   27.0970 C.2   207  GLU207      0.2617
    164  O          5.0730    3.2830   28.2770 O.2   207  GLU207     -0.2715
    165  CB         5.5380    1.3340   26.2290 C.3   207  GLU207      0.0429
    166  CG         6.2010    0.5350   25.1050 C.3   207  GLU207      0.1163
    167  CD         5.9350   -0.9530   25.2220 C.2   207  GLU207      0.3649
    168  OE1        4.7500   -1.3460   25.1330 O.co2 207  GLU207     -0.2457
    169  OE2        6.9050   -1.7250   25.4180 O.co2 207  GLU207     -0.2457
    170  N          4.2960    4.7040   26.7260 N.am  208  GLY208     -0.1940
    171  CA         3.7150    5.5560   27.7320 C.3   208  GLY208      0.2014
    172  C          4.8570    6.2870   28.4230 C.2   208  GLY208      0.2639
    173  O          5.9060    6.5320   27.8050 O.2   208  GLY208     -0.2714
    174  N          4.6840    6.6120   29.6990 N.am  209  CYS209     -0.1967
    175  CA         5.7210    7.3210   30.4470 C.3   209  CYS209      0.1712
    176  C          5.6160    6.9600   31.9130 C.2   209  CYS209      0.2296
    177  O          4.5630    7.1520   32.5280 O.2   209  CYS209     -0.2864
    178  CB         5.5770    8.8520   30.3030 C.3   209  CYS209      0.0983
    179  SG         5.5530    9.4970   28.6130 S.3   209  CYS209     -0.0798
    180  N         10.5220    0.7400   30.6610 N.3   215  TYR215     -0.1227
    181  CA        11.6940    1.6150   30.7790 C.3   215  TYR215      0.1736
    182  C         11.6670    2.6310   29.6520 C.2   215  TYR215      0.2596
    183  O         10.8540    2.5050   28.7360 O.2   215  TYR215     -0.2718
    184  CB        12.9820    0.8040   30.6380 C.3   215  TYR215      0.0548
    185  CG        13.1170   -0.2950   31.6520 C.ar  215  TYR215     -0.0200
    186  CD1       13.2720    0.0100   32.9970 C.ar  215  TYR215     -0.0009
    187  CD2       13.0210   -1.6360   31.2830 C.ar  215  TYR215     -0.0009
    188  CE1       13.3200   -0.9780   33.9540 C.ar  215  TYR215      0.0417
    189  CE2       13.0730   -2.6410   32.2350 C.ar  215  TYR215      0.0417
    190  CZ        13.2170   -2.3000   33.5700 C.ar  215  TYR215      0.1957
    191  OH        13.2480   -3.2480   34.5670 O.3   215  TYR215     -0.2866
    192  N         12.5060    3.6650   29.7600 N.am  216  GLY216     -0.1942
    193  CA        12.5900    4.6470   28.6940 C.3   216  GLY216      0.2014
    194  C         13.6580    4.0760   27.7810 C.2   216  GLY216      0.2639
    195  O         14.5950    3.4250   28.2640 O.2   216  GLY216     -0.2714
    196  N         13.4820    4.2230   26.4770 N.am  217  ILE217     -0.1963
    197  CA        14.4530    3.7110   25.5310 C.3   217  ILE217      0.1727
    198  C         15.2240    4.8920   24.9360 C.2   217  ILE217      0.2616
    199  O         14.6570    5.9540   24.6260 O.2   217  ILE217     -0.2715
    200  CB        13.8080    2.8960   24.4250 C.3   217  ILE217      0.0290
    201  CG1       12.8050    1.9080   25.0360 C.3   217  ILE217      0.0022
    202  CG2       14.8730    2.1770   23.6140 C.3   217  ILE217      0.0023
    203  CD1       13.3840    1.0000   26.0400 C.3   217  ILE217      0.0001
    204  N         16.5290    4.6960   24.8080 N.am  218  TYR218     -0.1974
    205  CA        17.4660    5.7070   24.3310 C.3   218  TYR218      0.1639
    206  C         18.3110    5.1780   23.1970 C.2   218  TYR218      0.2290
    207  O         18.6420    3.9730   23.1700 O.2   218  TYR218     -0.2864
    208  CB        18.4380    6.0670   25.4750 C.3   218  TYR218      0.0560
    209  CG        17.7560    6.6520   26.6840 C.ar  218  TYR218     -0.0198
    210  CD1       17.0740    5.8260   27.5880 C.ar  218  TYR218     -0.0009
    211  CD2       17.6890    8.0450   26.8630 C.ar  218  TYR218     -0.0009
    212  CE1       16.3240    6.3650   28.6300 C.ar  218  TYR218      0.0417
    213  CE2       16.9330    8.5960   27.9040 C.ar  218  TYR218      0.0417
    214  CZ        16.2500    7.7430   28.7760 C.ar  218  TYR218      0.1957
    215  OH        15.4430    8.2570   29.7550 O.3   218  TYR218     -0.2866
@<TRIPOS>BOND
     1    28    27    1
     2    27    26    1
     3    26    25    1
     4    25    24    1
     5    24    21    1
     6    20    21    1
     7    33    34    1
     8    33    30    1
     9    36    35   ar
    10    34    35    1
    11    29    30    1
    12    29    22   am
    13    21    22    1
    14    35    37   ar
    15    30    31    1
    16    22    23    2
    17    43    42    1
    18    11    12    1
    19    44    42    1
    20    31    38   am
    21    31    32    2
    22    38    39    1
    23    13    12    1
    24    13    14    2
    25    12    15    1
    26    42    39    1
    27    39    40    1
    28     4     3    2
    29     2     1    1
    30     2     3    1
    31     2     5    1
    32    45    40   am
    33    45    46    1
    34    19    17   am
    35    40    41    2
    36    15    16    1
    37     5     6    1
    38    46    47    1
    39    46    49    1
    40    95    93    1
    41    47    48    2
    42    16    17    1
    43    53    51   ar
    44    53    55   ar
    45    17    18    2
    46    51    50   ar
    47    56    55    1
    48    55    54   ar
    49    50    49    1
    50    50    52   ar
    51     6     8   ar
    52     6     7   ar
    53    93    92    1
    54     8    10   ar
    55    94    92    1
    56    92    89    1
    57    54    52   ar
    58     7     9   ar
    59    10     9   ar
    60    89    88    1
    61    89    90    1
    62    85    83   ar
    63    85    87   ar
    64    83    82   ar
    65    88    79   am
    66    91    90    2
    67   142   141    1
    68    87    86   ar
    69    82    81    1
    70    82    84   ar
    71    81    78    1
    72    79    78    1
    73    79    80    2
    74    78    77    1
    75   151   149   ar
    76   151   152   ar
    77   149   148   ar
    78   140   139    2
    79   141   138    1
    80   152   154   ar
    81   152   150   ar
    82   148   147    1
    83   148   150   ar
    84    84    86   ar
    85   154   156   ar
    86   147   144    1
    87   128   129    1
    88   128   125    1
    89   127   126    2
    90   138   139    1
    91   138   137    1
    92   150   153   ar
    93   139   143   am
    94   126   125    1
    95   123   121   am
    96   133   132    2
    97   156   155   ar
    98   153   155   ar
    99   125   124    1
   100   143   144    1
   101   144   145    1
   102   137   132   am
   103   132   131    1
   104   207   206    2
   105   206   205    1
   106   121   120    1
   107   121   122    2
   108   202   200    1
   109   120   119    1
   110   130   131    1
   111   145   157   am
   112   145   146    2
   113   157   158    1
   114   205   204    1
   115   205   208    1
   116   200   201    1
   117   200   197    1
   118   131   134    1
   119   199   198    2
   120   160   159    2
   121   204   198   am
   122   198   197    1
   123    67    65    1
   124   201   203    1
   125   119   116    1
   126   166   167    1
   127   166   165    1
   128   168   167   ar
   129   134   135    1
   130   134   136    1
   131   167   169   ar
   132   159   158    1
   133   159   161   am
   134   116   117    1
   135   116   115    1
   136   208   209    1
   137   117   118    2
   138   197   196    1
   139   161   162    1
   140   162   165    1
   141   162   163    1
   142    65    64    2
   143    65    66    1
   144    64    63    1
   145   196   194   am
   146   115   111   am
   147   209   211   ar
   148   209   210   ar
   149   170   163   am
   150   170   171    1
   151   112   111    2
   152   211   213   ar
   153   163   164    2
   154   111   110    1
   155    63    62    1
   156   210   212   ar
   157   171   172    1
   158   194   195    2
   159   194   193    1
   160   173   172    2
   161   213   214   ar
   162    62    61    1
   163   172   174   am
   164   110   109    1
   165   110   113    1
   166    71    70    2
   167   179   114    1
   168   179   178    1
   169   212   214   ar
   170   193   192    1
   171   183   182    2
   172   214   215    1
   173    57    58    1
   174   109   106   am
   175    76    74   ar
   176   114   113    1
   177    61    58    1
   178   108   105    1
   179    73    74    1
   180    73    72    1
   181   182   192   am
   182   182   181    1
   183   174   175    1
   184    70    69    1
   185    58    59    1
   186    74    75   ar
   187   106   107    2
   188   106   105    1
   189   178   175    1
   190   175   176    1
   191   105   104    1
   192   184   181    1
   193   184   185    1
   194    69    72    1
   195    69    68    1
   196   180   181    1
   197   103   101   ar
   198   102   101   ar
   199    59    60    2
   200   187   185   ar
   201   187   189   ar
   202   104    98   am
   203   101   100    1
   204   185   186   ar
   205   176   177    2
   206   189   190   ar
   207    98    99    2
   208    98    97    1
   209   100    97    1
   210   186   188   ar
   211    97    96    1
   212   190   188   ar
   213   190   191    1
