@<TRIPOS>MOLECULE
tmp/1fjwA00.pdb
 89 84 0 0 0
SMALL
GASTEIGER

@<TRIPOS>ATOM
      1  N         32.8500   36.8050    0.1080 N.3   112  ASN112     -0.1225
      2  CA        33.0710   37.7900   -0.9370 C.3   112  ASN112      0.1785
      3  C         31.9610   38.8450   -0.8870 C.2   112  ASN112      0.2597
      4  O         30.9440   38.6380   -0.2200 O.2   112  ASN112     -0.2718
      5  CB        33.0760   37.1420   -2.3090 C.3   112  ASN112      0.1169
      6  CG        33.8280   37.9940   -3.3190 C.2   112  ASN112      0.2627
      7  OD1       34.6010   38.9070   -3.0270 O.2   112  ASN112     -0.2716
      8  ND2       33.5420   37.6770   -4.5780 N.am  112  ASN112     -0.0877
      9  N         32.1770   39.9010   -1.6320 N.am  113  ALA113     -0.1979
     10  CA        31.1630   40.9590   -1.7370 C.3   113  ALA113      0.1597
     11  C         31.4010   41.4770   -3.1480 C.2   113  ALA113      0.2287
     12  O         32.5460   41.4820   -3.6180 O.2   113  ALA113     -0.2864
     13  CB        31.3330   42.0670   -0.7320 C.3   113  ALA113      0.0319
     14  N         36.6630   35.4540    6.7320 N.3   130  PHE130     -0.1241
     15  CA        36.0760   36.7900    6.8070 C.3   130  PHE130      0.1605
     16  C         34.9330   36.7810    7.8260 C.2   130  PHE130      0.2264
     17  O         34.2990   35.7590    8.0600 O.2   130  PHE130     -0.2867
     18  CB        35.4390   37.2260    5.4860 C.3   130  PHE130      0.0534
     19  CG        36.3480   37.6470    4.3800 C.ar  130  PHE130     -0.0203
     20  CD1       36.8230   38.9520    4.3520 C.ar  130  PHE130     -0.0042
     21  CD2       36.7250   36.7820    3.3730 C.ar  130  PHE130     -0.0042
     22  CE1       37.6680   39.3710    3.3410 C.ar  130  PHE130     -0.0003
     23  CE2       37.6140   37.1760    2.3830 C.ar  130  PHE130     -0.0003
     24  CZ        38.0300   38.4910    2.3430 C.ar  130  PHE130     -0.0000
     25  N         31.1150   41.0510    5.2020 N.3   133  LEU133     -0.1245
     26  CA        32.0230   41.9460    4.4660 C.3   133  LEU133      0.1561
     27  C         31.6390   43.4100    4.4350 C.2   133  LEU133      0.2260
     28  O         32.5060   44.2750    4.2490 O.2   133  LEU133     -0.2867
     29  CB        32.2030   41.4490    3.0200 C.3   133  LEU133      0.0270
     30  CG        33.3180   40.3520    3.0630 C.3   133  LEU133      0.0019
     31  CD1       32.6000   39.0440    3.3640 C.3   133  LEU133      0.0001
     32  CD2       34.1460   40.3230    1.8090 C.3   133  LEU133      0.0001
     33  N         36.0590   47.9290    1.7830 N.3   139  VAL139     -0.1245
     34  CA        35.3690   46.9590    0.9390 C.3   139  VAL139      0.1561
     35  C         34.1220   47.5550    0.2890 C.2   139  VAL139      0.2260
     36  O         33.9350   47.4400   -0.9290 O.2   139  VAL139     -0.2867
     37  CB        34.9270   45.7050    1.7390 C.3   139  VAL139      0.0252
     38  CG1       34.0770   44.7560    0.9330 C.3   139  VAL139      0.0019
     39  CG2       36.2740   45.0550    2.1620 C.3   139  VAL139      0.0019
     40  N         35.1930   50.1940   -2.1610 N.3   142  HIS142     -0.1226
     41  CA        35.8910   49.5800   -3.3170 C.3   142  HIS142      0.1752
     42  C         34.7840   49.0510   -4.2610 C.2   142  HIS142      0.2595
     43  O         34.7210   49.4280   -5.4310 O.2   142  HIS142     -0.2718
     44  CB        36.7100   48.3630   -2.8140 C.3   142  HIS142      0.0759
     45  CG        37.2150   47.5150   -3.9540 C.ar  142  HIS142      0.0818
     46  ND1       38.5630   47.3940   -4.2690 N.ar  142  HIS142     -0.2268
     47  CD2       36.5570   46.6930   -4.7850 C.ar  142  HIS142      0.1154
     48  CE1       38.6860   46.5490   -5.2840 C.ar  142  HIS142      0.1986
     49  NE2       37.4520   46.1030   -5.6760 N.ar  142  HIS142     -0.2212
     50  N         33.8060   48.3050   -3.7000 N.am  143  GLU143     -0.1979
     51  CA        32.7860   47.7140   -4.5940 C.3   143  GLU143      0.1602
     52  C         31.8320   48.7330   -5.2080 C.2   143  GLU143      0.2287
     53  O         31.5290   48.6870   -6.4280 O.2   143  GLU143     -0.2864
     54  CB        31.9780   46.6190   -3.8850 C.3   143  GLU143      0.0415
     55  CG        32.7780   45.3540   -3.5820 C.3   143  GLU143      0.1163
     56  CD        33.4320   44.7120   -4.7510 C.2   143  GLU143      0.3649
     57  OE1       32.9090   44.7860   -5.8430 O.co2 143  GLU143     -0.2457
     58  OE2       34.5250   44.1070   -4.5890 O.co2 143  GLU143     -0.2457
     59  N         43.9420   46.7670    2.4150 N.3   188  ILE188     -0.1231
     60  CA        42.5100   46.6100    2.0210 C.3   188  ILE188      0.1692
     61  C         41.8970   45.4400    2.7700 C.2   188  ILE188      0.2592
     62  O         42.4700   44.3500    2.7600 O.2   188  ILE188     -0.2718
     63  CB        42.4210   46.3090    0.5160 C.3   188  ILE188      0.0266
     64  CG1       43.1170   47.3910   -0.3200 C.3   188  ILE188      0.0019
     65  CG2       40.9530   46.0470    0.0950 C.3   188  ILE188      0.0020
     66  CD1       42.3980   48.7350   -0.3160 C.3   188  ILE188      0.0001
     67  N         40.7220   45.6810    3.3660 N.am  189  GLY189     -0.1957
     68  CA        39.9750   44.6220    4.0000 C.3   189  GLY189      0.1869
     69  C         40.4430   44.2030    5.3730 C.2   189  GLY189      0.2309
     70  O         39.8230   43.3220    5.9670 O.2   189  GLY189     -0.2863
     71  N         43.8480   41.8030    3.1220 N.3   202  LEU202     -0.1231
     72  CA        43.8340   41.0530    1.8650 C.3   202  LEU202      0.1693
     73  C         44.9530   41.4900    0.9400 C.2   202  LEU202      0.2591
     74  O         45.3920   40.6770    0.1460 O.2   202  LEU202     -0.2718
     75  CB        42.4140   41.2240    1.2610 C.3   202  LEU202      0.0284
     76  CG        42.0350   40.2840    0.1290 C.3   202  LEU202      0.0019
     77  CD1       42.1280   38.8240    0.5410 C.3   202  LEU202      0.0001
     78  CD2       40.5690   40.5770   -0.3060 C.3   202  LEU202      0.0001
     79  N         45.0930   42.7890    0.7920 N.am  203  ARG203     -0.1980
     80  CA        46.0710   43.3880   -0.0790 C.3   203  ARG203      0.1597
     81  C         46.5930   44.6280    0.6630 C.2   203  ARG203      0.2287
     82  O         45.9350   45.2220    1.4960 O.2   203  ARG203     -0.2864
     83  CB        45.4890   43.9990   -1.3690 C.3   203  ARG203      0.0334
     84  CG        44.9140   43.0360   -2.3620 C.3   203  ARG203      0.0492
     85  CD        44.3640   43.6780   -3.5980 C.3   203  ARG203      0.2205
     86  NE        43.0950   44.3420   -3.5170 N.pl3 203  ARG203     -0.0865
     87  CZ        41.9060   43.7500   -3.4390 C.cat 203  ARG203      0.5346
     88  NH1       41.7830   42.4200   -3.3960 N.pl3 203  ARG203      0.1354
     89  NH2       40.8470   44.5270   -3.4600 N.pl3 203  ARG203      0.1354
@<TRIPOS>BOND
     1    53    52    2
     2    57    56   ar
     3    49    48   ar
     4    49    47   ar
     5    43    42    2
     6    48    46   ar
     7    52    51    1
     8    47    45   ar
     9    56    58   ar
    10    56    55    1
    11    51    54    1
    12    51    50    1
    13     8     6   am
    14    46    45   ar
    15    42    50   am
    16    42    41    1
    17    45    44    1
    18    54    55    1
    19    12    11    2
    20    85    86    1
    21    85    84    1
    22    86    87    2
    23    89    87    1
    24    87    88    1
    25     6     7    2
    26     6     5    1
    27    41    44    1
    28    41    40    1
    29    11    10    1
    30    84    83    1
    31     5     2    1
    32    10     9    1
    33    10    13    1
    34     9     3   am
    35    83    80    1
    36     2     3    1
    37     2     1    1
    38    36    35    2
    39     3     4    2
    40    64    66    1
    41    64    63    1
    42    78    76    1
    43    80    81    1
    44    80    79    1
    45    65    63    1
    46    76    77    1
    47    76    75    1
    48    74    73    2
    49    35    34    1
    50    63    60    1
    51    81    82    2
    52    79    73   am
    53    38    37    1
    54    34    37    1
    55    34    33    1
    56    73    72    1
    57    75    72    1
    58    37    39    1
    59    32    30    1
    60    72    71    1
    61    60    59    1
    62    60    61    1
    63    24    23   ar
    64    24    22   ar
    65    23    21   ar
    66    62    61    2
    67    61    67   am
    68    29    30    1
    69    29    26    1
    70    30    31    1
    71    22    20   ar
    72    67    68    1
    73    21    19   ar
    74    68    69    1
    75    28    27    2
    76    20    19   ar
    77    19    18    1
    78    27    26    1
    79    26    25    1
    80    69    70    2
    81    18    15    1
    82    14    15    1
    83    15    16    1
    84    16    17    2
