@<TRIPOS>MOLECULE
tmp/1fkgA00.pdb
 154 153 0 0 0
SMALL
GASTEIGER

@<TRIPOS>ATOM
      1  N        -30.7070   21.7170   -3.5330 N.3    26  TYR26      -0.1241
      2  CA       -30.4270   21.0070   -2.3000 C.3    26  TYR26       0.1605
      3  C        -31.6880   20.8200   -1.4470 C.2    26  TYR26       0.2264
      4  O        -32.6410   21.6040   -1.6010 O.2    26  TYR26      -0.2867
      5  CB       -29.3300   21.7720   -1.4880 C.3    26  TYR26       0.0534
      6  CG       -29.7350   23.0810   -0.8280 C.ar   26  TYR26      -0.0201
      7  CD1      -30.3150   23.0450    0.4440 C.ar   26  TYR26      -0.0009
      8  CD2      -29.5930   24.2980   -1.4770 C.ar   26  TYR26      -0.0009
      9  CE1      -30.7440   24.2160    1.0450 C.ar   26  TYR26       0.0417
     10  CE2      -30.0340   25.4820   -0.8770 C.ar   26  TYR26       0.0417
     11  CZ       -30.6080   25.4290    0.3840 C.ar   26  TYR26       0.1957
     12  OH       -31.0430   26.5860    1.0010 O.3    26  TYR26      -0.2866
     13  N        -35.1370   20.8120    6.9490 N.3    36  PHE36      -0.1227
     14  CA       -35.1590   22.1650    7.4850 C.3    36  PHE36       0.1736
     15  C        -35.1880   23.1960    6.3550 C.2    36  PHE36       0.2595
     16  O        -35.4930   24.3700    6.5930 O.2    36  PHE36      -0.2718
     17  CB       -33.9490   22.3950    8.4110 C.3    36  PHE36       0.0547
     18  CG       -32.5490   22.0700    7.9070 C.ar   36  PHE36      -0.0202
     19  CD1      -31.8450   23.0020    7.1410 C.ar   36  PHE36      -0.0042
     20  CD2      -31.9600   20.8630    8.2830 C.ar   36  PHE36      -0.0042
     21  CE1      -30.5450   22.7190    6.7640 C.ar   36  PHE36      -0.0003
     22  CE2      -30.6540   20.6050    7.8940 C.ar   36  PHE36      -0.0003
     23  CZ       -29.9480   21.5270    7.1390 C.ar   36  PHE36      -0.0000
     24  N        -34.8300   22.8060    5.1310 N.am   37  ASP37      -0.1974
     25  CA       -34.8970   23.7270    3.9810 C.3    37  ASP37       0.1709
     26  C        -34.6080   22.9870    2.6880 C.2    37  ASP37       0.2293
     27  O        -33.9640   21.9500    2.7490 O.2    37  ASP37      -0.2864
     28  CB       -33.8760   24.8820    4.0500 C.3    37  ASP37       0.1436
     29  CG       -34.2350   25.9860    3.0420 C.2    37  ASP37       0.3671
     30  OD1      -35.3780   26.4300    3.0260 O.co2  37  ASP37      -0.2456
     31  OD2      -33.4190   26.3830    2.2320 O.co2  37  ASP37      -0.2456
     32  N        -29.7400   27.1890   -5.9070 N.3    46  PHE46      -0.1241
     33  CA       -29.0170   28.0760   -5.0290 C.3    46  PHE46       0.1605
     34  C        -27.6490   28.2890   -5.6600 C.2    46  PHE46       0.2264
     35  O        -27.0540   27.3190   -6.1200 O.2    46  PHE46      -0.2867
     36  CB       -28.9080   27.4040   -3.6600 C.3    46  PHE46       0.0534
     37  CG       -28.0830   28.1550   -2.6510 C.ar   46  PHE46      -0.0203
     38  CD1      -28.5850   29.2880   -2.0550 C.ar   46  PHE46      -0.0042
     39  CD2      -26.8280   27.6980   -2.3330 C.ar   46  PHE46      -0.0042
     40  CE1      -27.8170   29.9620   -1.1350 C.ar   46  PHE46      -0.0003
     41  CE2      -26.0750   28.3860   -1.4140 C.ar   46  PHE46      -0.0003
     42  CZ       -26.5600   29.5230   -0.8060 C.ar   46  PHE46      -0.0000
     43  N        -15.8370   31.5680    1.0750 N.3    53  GLN53      -0.1231
     44  CA       -16.1760   31.4990    2.4930 C.3    53  GLN53       0.1698
     45  C        -17.5760   32.0070    2.8160 C.2    53  GLN53       0.2592
     46  O        -17.7990   32.6940    3.8170 O.2    53  GLN53      -0.2718
     47  CB       -15.1870   32.2990    3.3260 C.3    53  GLN53       0.0381
     48  CG       -13.7790   31.7760    3.3830 C.3    53  GLN53       0.0905
     49  CD       -12.8300   32.8880    3.8040 C.2    53  GLN53       0.2608
     50  OE1      -13.0790   33.6890    4.7080 O.2    53  GLN53      -0.2717
     51  NE2      -11.6920   32.9440    3.1220 N.am   53  GLN53      -0.0878
     52  N        -18.5430   31.6900    1.9520 N.am   54  GLU54      -0.1966
     53  CA       -19.8940   32.1110    2.2250 C.3    54  GLU54       0.1733
     54  C        -20.8750   30.9740    2.4900 C.2    54  GLU54       0.2616
     55  O        -22.0460   31.2390    2.6920 O.2    54  GLU54      -0.2715
     56  CB       -20.3990   32.9380    1.0930 C.3    54  GLU54       0.0429
     57  CG       -20.4320   32.2340   -0.2620 C.3    54  GLU54       0.1163
     58  CD       -20.9540   33.1310   -1.3720 C.2    54  GLU54       0.3649
     59  OE1      -21.2460   34.3020   -1.1090 O.co2  54  GLU54      -0.2457
     60  OE2      -21.0480   32.6800   -2.5090 O.co2  54  GLU54      -0.2457
     61  N        -20.4260   29.7310    2.4340 N.am   55  VAL55      -0.1963
     62  CA       -21.2070   28.5760    2.8280 C.3    55  VAL55       0.1727
     63  C        -20.4350   27.8320    3.9270 C.2    55  VAL55       0.2616
     64  O        -19.2760   28.1810    4.2470 O.2    55  VAL55      -0.2715
     65  CB       -21.4620   27.6210    1.6300 C.3    55  VAL55       0.0290
     66  CG1      -22.5150   28.3010    0.7810 C.3    55  VAL55       0.0023
     67  CG2      -20.1760   27.2740    0.8630 C.3    55  VAL55       0.0023
     68  N        -21.0450   26.8180    4.5390 N.am   56  ILE56      -0.1963
     69  CA       -20.3970   26.0960    5.6100 C.3    56  ILE56       0.1727
     70  C        -19.2650   25.2280    5.0410 C.2    56  ILE56       0.2616
     71  O        -19.2760   24.7710    3.8690 O.2    56  ILE56      -0.2715
     72  CB       -21.4450   25.2030    6.4400 C.3    56  ILE56       0.0290
     73  CG1      -22.3620   24.3610    5.5450 C.3    56  ILE56       0.0022
     74  CG2      -22.2920   26.1490    7.3000 C.3    56  ILE56       0.0023
     75  CD1      -23.1720   23.2440    6.2580 C.3    56  ILE56       0.0001
     76  N        -18.2550   24.9930    5.9060 N.am   57  ARG57      -0.1977
     77  CA       -17.0560   24.2490    5.4940 C.3    57  ARG57       0.1597
     78  C        -17.3380   22.8600    4.9270 C.2    57  ARG57       0.2287
     79  O        -16.6510   22.4610    4.0070 O.2    57  ARG57      -0.2864
     80  CB       -16.0850   24.1380    6.7110 C.3    57  ARG57       0.0334
     81  CG       -14.7830   23.4290    6.3720 C.3    57  ARG57       0.0492
     82  CD       -13.7690   23.3320    7.5140 C.3    57  ARG57       0.2205
     83  NE       -12.6350   22.6010    6.9360 N.pl3  57  ARG57      -0.0865
     84  CZ       -11.5590   22.1540    7.6070 C.cat  57  ARG57       0.5346
     85  NH1      -11.3720   22.3350    8.9250 N.pl3  57  ARG57       0.1354
     86  NH2      -10.6340   21.4910    6.8940 N.pl3  57  ARG57       0.1354
     87  N        -19.7060   22.0550    2.9660 N.3    59  TRP59      -0.1241
     88  CA       -20.1230   22.3260    1.5750 C.3    59  TRP59       0.1605
     89  C        -18.9160   22.6420    0.6720 C.2    59  TRP59       0.2264
     90  O        -18.7010   21.9450   -0.3420 O.2    59  TRP59      -0.2867
     91  CB       -21.1220   23.5030    1.5330 C.3    59  TRP59       0.0550
     92  CG       -22.5630   23.0140    1.5130 C.ar   59  TRP59       0.0003
     93  CD1      -23.0830   22.1960    2.5010 C.ar   59  TRP59       0.0946
     94  CD2      -23.4890   23.2840    0.5190 C.ar   59  TRP59       0.0152
     95  NE1      -24.3240   21.9520    2.1260 N.ar   59  TRP59      -0.2442
     96  CE2      -24.6010   22.5750    0.9580 C.ar   59  TRP59       0.0810
     97  CE3      -23.5110   24.0200   -0.6640 C.ar   59  TRP59       0.0012
     98  CZ2      -25.7610   22.5900    0.2190 C.ar   59  TRP59       0.0191
     99  CZ3      -24.6660   24.0280   -1.3960 C.ar   59  TRP59       0.0001
    100  CH2      -25.7740   23.3230   -0.9590 C.ar   59  TRP59       0.0015
    101  N        -20.0440   22.4260   10.1290 N.3    81  ALA81      -0.1231
    102  CA       -21.3290   23.0380    9.8450 C.3    81  ALA81       0.1694
    103  C        -21.4700   24.1820   10.8380 C.2    81  ALA81       0.2592
    104  O        -20.6100   25.0620   10.7980 O.2    81  ALA81      -0.2718
    105  CB       -22.4030   21.9550   10.0040 C.3    81  ALA81       0.0304
    106  N        -22.4450   24.2020   11.7760 N.am   82  TYR82      -0.1976
    107  CA       -22.7260   25.3260   12.6780 C.3    82  TYR82       0.1639
    108  C        -22.2110   25.1600   14.1320 C.2    82  TYR82       0.2290
    109  O        -22.4430   26.0050   15.0220 O.2    82  TYR82      -0.2864
    110  CB       -24.2460   25.5350   12.6360 C.3    82  TYR82       0.0560
    111  CG       -24.7320   25.9690   11.2700 C.ar   82  TYR82      -0.0198
    112  CD1      -24.4340   27.2480   10.7800 C.ar   82  TYR82      -0.0009
    113  CD2      -25.4340   25.0650   10.4840 C.ar   82  TYR82      -0.0009
    114  CE1      -24.8240   27.6230    9.5040 C.ar   82  TYR82       0.0417
    115  CE2      -25.8210   25.4350    9.2130 C.ar   82  TYR82       0.0417
    116  CZ       -25.5170   26.6980    8.7360 C.ar   82  TYR82       0.1957
    117  OH       -25.9130   27.0200    7.4540 O.3    82  TYR82      -0.2866
    118  N        -27.9530   27.1760   14.1620 N.3    87  HIS87      -0.1241
    119  CA       -28.4060   28.3510   13.4310 C.3    87  HIS87       0.1621
    120  C        -29.6580   28.7580   14.1710 C.2    87  HIS87       0.2264
    121  O        -30.6130   27.9590   14.1170 O.2    87  HIS87      -0.2867
    122  CB       -28.7570   28.0120   11.9920 C.3    87  HIS87       0.0745
    123  CG       -29.0610   29.2460   11.1430 C.ar   87  HIS87       0.0817
    124  ND1      -30.1980   29.9580   11.0440 N.ar   87  HIS87      -0.2268
    125  CD2      -28.1330   29.8490   10.3190 C.ar   87  HIS87       0.1154
    126  CE1      -29.9920   30.9520   10.2110 C.ar   87  HIS87       0.1986
    127  NE2      -28.7450   30.8740    9.7840 N.ar   87  HIS87      -0.2212
    128  N        -33.2910   27.2540   13.7440 N.3    90  ILE90      -0.1231
    129  CA       -33.3940   26.2040   12.7340 C.3    90  ILE90       0.1692
    130  C        -32.5690   24.9710   13.0110 C.2    90  ILE90       0.2591
    131  O        -33.0550   23.8450   12.9040 O.2    90  ILE90      -0.2718
    132  CB       -33.0210   26.8330   11.3490 C.3    90  ILE90       0.0266
    133  CG1      -34.0080   27.9280   11.0530 C.3    90  ILE90       0.0019
    134  CG2      -33.1560   25.8470   10.1870 C.3    90  ILE90       0.0020
    135  CD1      -33.5260   28.9240   10.0060 C.3    90  ILE90       0.0001
    136  N        -31.2840   25.1370   13.3180 N.am   91  ILE91      -0.1980
    137  CA       -30.3970   23.9870   13.5110 C.3    91  ILE91       0.1595
    138  C        -30.0640   24.0510   14.9890 C.2    91  ILE91       0.2287
    139  O        -29.7090   25.1480   15.4130 O.2    91  ILE91      -0.2864
    140  CB       -29.0790   24.1180   12.6820 C.3    91  ILE91       0.0276
    141  CG1      -29.3640   24.3590   11.2050 C.3    91  ILE91       0.0022
    142  CG2      -28.2540   22.8640   12.8480 C.3    91  ILE91       0.0022
    143  CD1      -30.1470   23.2350   10.5160 C.3    91  ILE91       0.0001
    144  N        -27.2400   16.7180    3.6680 N.3    99  PHE99      -0.1241
    145  CA       -27.7300   17.4880    2.5360 C.3    99  PHE99       0.1605
    146  C        -27.8230   16.5830    1.3010 C.2    99  PHE99       0.2264
    147  O        -26.9350   15.7730    1.0470 O.2    99  PHE99      -0.2867
    148  CB       -26.7880   18.6300    2.2190 C.3    99  PHE99       0.0534
    149  CG       -26.9040   19.8340    3.0990 C.ar   99  PHE99      -0.0203
    150  CD1      -26.1450   19.9190    4.2710 C.ar   99  PHE99      -0.0042
    151  CD2      -27.7660   20.8520    2.7380 C.ar   99  PHE99      -0.0042
    152  CE1      -26.2720   21.0350    5.0590 C.ar   99  PHE99      -0.0003
    153  CE2      -27.8790   21.9650    3.5430 C.ar   99  PHE99      -0.0003
    154  CZ       -27.1350   22.0550    4.7000 C.ar   99  PHE99      -0.0000
@<TRIPOS>BOND
     1    35    34    2
     2    32    33    1
     3    34    33    1
     4    33    36    1
     5    36    37    1
     6     1     2    1
     7    37    39   ar
     8    37    38   ar
     9    60    58   ar
    10    39    41   ar
    11     2     5    1
    12     2     3    1
    13    38    40   ar
    14     4     3    2
    15     5     6    1
    16     8    10   ar
    17     8     6   ar
    18    41    42   ar
    19    99   100   ar
    20    99    97   ar
    21    58    59   ar
    22    58    57    1
    23    40    42   ar
    24   100    98   ar
    25    10    11   ar
    26     6     7   ar
    27    97    94   ar
    28    90    89    2
    29    57    56    1
    30    98    96   ar
    31    11    12    1
    32    11     9   ar
    33     7     9   ar
    34    94    96   ar
    35    94    92   ar
    36    89    88    1
    37    66    65    1
    38    67    65    1
    39    96    95   ar
    40   147   146    2
    41    43    44    1
    42    56    53    1
    43   146   145    1
    44    92    91    1
    45    92    93   ar
    46    91    88    1
    47    88    87    1
    48    65    62    1
    49    52    53    1
    50    52    45   am
    51    95    93   ar
    52   148   145    1
    53   148   149    1
    54    53    54    1
    55    31    29   ar
    56    61    54   am
    57    61    62    1
    58    54    55    2
    59    44    45    1
    60    44    47    1
    61   145   144    1
    62    26    27    2
    63    26    25    1
    64   151   149   ar
    65   151   153   ar
    66    45    46    2
    67    62    63    1
    68    30    29   ar
    69    29    28    1
    70   149   150   ar
    71    51    49   am
    72    47    48    1
    73    48    49    1
    74   153   154   ar
    75    49    50    2
    76    71    70    2
    77    63    64    2
    78    63    68   am
    79    25    28    1
    80    25    24    1
    81    79    78    2
    82   150   152   ar
    83    68    69    1
    84   154   152   ar
    85    78    77    1
    86    70    69    1
    87    70    76   am
    88    24    15   am
    89    77    76    1
    90    77    80    1
    91    73    75    1
    92    73    72    1
    93    69    72    1
    94    15    16    2
    95    15    14    1
    96    81    80    1
    97    81    82    1
    98    72    74    1
    99    21    23   ar
   100    21    19   ar
   101    86    84    1
   102    83    82    1
   103    83    84    2
   104    13    14    1
   105    23    22   ar
   106    19    18   ar
   107   117   116    1
   108    14    17    1
   109    84    85    1
   110    22    20   ar
   111    18    20   ar
   112    18    17    1
   113   116   115   ar
   114   116   114   ar
   115   115   113   ar
   116   114   112   ar
   117   127   126   ar
   118   127   125   ar
   119   102   105    1
   120   102   101    1
   121   102   103    1
   122   135   133    1
   123   134   132    1
   124   126   124   ar
   125   125   123   ar
   126   113   111   ar
   127   143   141    1
   128   112   111   ar
   129   104   103    2
   130   103   106   am
   131   124   123   ar
   132   133   132    1
   133   123   122    1
   134   141   140    1
   135   111   110    1
   136   132   129    1
   137   106   107    1
   138   122   119    1
   139   110   107    1
   140   107   108    1
   141   140   142    1
   142   140   137    1
   143   129   130    1
   144   129   128    1
   145   131   130    2
   146   130   136   am
   147   136   137    1
   148   119   118    1
   149   119   120    1
   150   137   138    1
   151   121   120    2
   152   108   109    2
   153   138   139    2
