@<TRIPOS>MOLECULE
tmp/1fkiA00.pdb
 140 138 0 0 0
SMALL
GASTEIGER

@<TRIPOS>ATOM
      1  N         10.6710  -38.0810   -8.3130 N.3    26  TYR26      -0.1241
      2  CA        11.7150  -38.1280   -7.2980 C.3    26  TYR26       0.1605
      3  C         12.1470  -39.5480   -6.9700 C.2    26  TYR26       0.2264
      4  O         11.3590  -40.4800   -7.1700 O.2    26  TYR26      -0.2867
      5  CB        11.2710  -37.4980   -5.9600 C.3    26  TYR26       0.0534
      6  CG        10.2740  -38.3160   -5.1520 C.ar   26  TYR26      -0.0201
      7  CD1        8.9440  -38.1700   -5.4540 C.ar   26  TYR26      -0.0009
      8  CD2       10.6850  -39.1830   -4.1580 C.ar   26  TYR26      -0.0009
      9  CE1        8.0050  -38.8970   -4.7740 C.ar   26  TYR26       0.0417
     10  CE2        9.7470  -39.9160   -3.4780 C.ar   26  TYR26       0.0417
     11  CZ         8.4170  -39.7460   -3.7960 C.ar   26  TYR26       0.1957
     12  OH         7.4290  -40.4210   -3.1320 O.3    26  TYR26      -0.2866
     13  N         14.5390  -45.8880   -0.7850 N.3    36  PHE36      -0.1227
     14  CA        13.3880  -46.3340   -0.0340 C.3    36  PHE36       0.1736
     15  C         12.0630  -46.0210   -0.7460 C.2    36  PHE36       0.2595
     16  O         11.0310  -46.4940   -0.2710 O.2    36  PHE36      -0.2718
     17  CB        13.4050  -45.7050    1.3640 C.3    36  PHE36       0.0547
     18  CG        13.4520  -44.1940    1.4780 C.ar   36  PHE36      -0.0202
     19  CD1       12.3060  -43.4330    1.3130 C.ar   36  PHE36      -0.0042
     20  CD2       14.6520  -43.5930    1.7880 C.ar   36  PHE36      -0.0042
     21  CE1       12.3630  -42.0590    1.4480 C.ar   36  PHE36      -0.0003
     22  CE2       14.6860  -42.2170    1.9210 C.ar   36  PHE36      -0.0003
     23  CZ        13.5550  -41.4480    1.7480 C.ar   36  PHE36      -0.0000
     24  N         12.0260  -45.2070   -1.8170 N.am   37  ASP37      -0.1974
     25  CA        10.8050  -44.9550   -2.5660 C.3    37  ASP37       0.1709
     26  C         11.1700  -44.1850   -3.8220 C.2    37  ASP37       0.2293
     27  O         12.1940  -43.5050   -3.8260 O.2    37  ASP37      -0.2864
     28  CB         9.7920  -44.1070   -1.7730 C.3    37  ASP37       0.1436
     29  CG         8.4810  -43.9910   -2.5130 C.2    37  ASP37       0.3671
     30  OD1        7.8920  -44.9980   -2.8650 O.co2  37  ASP37      -0.2456
     31  OD2        8.0550  -42.8920   -2.7990 O.co2  37  ASP37      -0.2456
     32  N          6.7600  -46.1060   -9.8120 N.3    42  ARG42      -0.1245
     33  CA         5.3630  -46.4170  -10.1120 C.3    42  ARG42       0.1563
     34  C          4.8320  -45.6140  -11.2910 C.2    42  ARG42       0.2260
     35  O          3.6390  -45.6240  -11.5920 O.2    42  ARG42      -0.2867
     36  CB         4.4740  -46.1800   -8.8850 C.3    42  ARG42       0.0307
     37  CG         4.6150  -44.8710   -8.2040 C.3    42  ARG42       0.0489
     38  CD         3.9190  -44.9300   -6.8640 C.3    42  ARG42       0.2205
     39  NE         4.4640  -43.7830   -6.1830 N.pl3  42  ARG42      -0.0865
     40  CZ         5.4230  -43.9110   -5.2710 C.cat  42  ARG42       0.5346
     41  NH1        5.8550  -45.1060   -4.8750 N.pl3  42  ARG42       0.1354
     42  NH2        5.9000  -42.8080   -4.7190 N.pl3  42  ARG42       0.1354
     43  N          4.6470  -37.1030   -8.7240 N.3    46  PHE46      -0.1241
     44  CA         4.1380  -36.7170   -7.4290 C.3    46  PHE46       0.1605
     45  C          3.7150  -35.2580   -7.5470 C.2    46  PHE46       0.2264
     46  O          4.4270  -34.4790   -8.1790 O.2    46  PHE46      -0.2867
     47  CB         5.2400  -36.8920   -6.3840 C.3    46  PHE46       0.0534
     48  CG         4.7670  -36.5480   -4.9660 C.ar   46  PHE46      -0.0203
     49  CD1        3.7310  -37.2630   -4.3830 C.ar   46  PHE46      -0.0042
     50  CD2        5.3510  -35.4950   -4.2800 C.ar   46  PHE46      -0.0042
     51  CE1        3.2830  -36.9090   -3.1310 C.ar   46  PHE46      -0.0003
     52  CE2        4.8860  -35.1600   -3.0220 C.ar   46  PHE46      -0.0003
     53  CZ         3.8550  -35.8630   -2.4500 C.ar   46  PHE46      -0.0000
     54  N          2.2140  -30.2010    3.4700 N.3    54  GLU54      -0.1182
     55  CA         1.8860  -31.6130    3.4350 C.3    54  GLU54       0.1915
     56  C          3.1300  -32.4410    3.1230 C.2    54  GLU54       0.2634
     57  O          3.0270  -33.6630    3.0470 O.2    54  GLU54      -0.2714
     58  CB         0.7760  -31.8590    2.4160 C.2    54  GLU54       0.0085
     59  CG         1.1160  -31.6970    0.9590 C.2    54  GLU54       0.0835
     60  CD        -0.0410  -31.9250   -0.0020 C.2    54  GLU54       0.3877
     61  OE1       -0.8460  -32.8270    0.2120 O.co2  54  GLU54      -0.2406
     62  OE2       -0.1130  -31.1960   -0.9920 O.co2  54  GLU54      -0.2406
     63  N          4.3050  -31.8390    2.8930 N.am   55  VAL55      -0.1963
     64  CA         5.5350  -32.5740    2.6480 C.3    55  VAL55       0.1727
     65  C          6.5420  -31.9890    3.6300 C.2    55  VAL55       0.2616
     66  O          6.3360  -30.8740    4.1630 O.2    55  VAL55      -0.2715
     67  CB         6.0910  -32.4270    1.1770 C.3    55  VAL55       0.0290
     68  CG1        5.1600  -33.1830    0.2500 C.3    55  VAL55       0.0023
     69  CG2        6.2460  -30.9790    0.7510 C.3    55  VAL55       0.0023
     70  N          7.6190  -32.7250    3.9310 N.am   56  ILE56      -0.1977
     71  CA         8.5710  -32.2500    4.9300 C.3    56  ILE56       0.1596
     72  C          9.1410  -30.8770    4.5750 C.2    56  ILE56       0.2287
     73  O          9.1840  -30.4720    3.4020 O.2    56  ILE56      -0.2864
     74  CB         9.7220  -33.2740    5.1230 C.3    56  ILE56       0.0276
     75  CG1       10.4560  -33.5840    3.8340 C.3    56  ILE56       0.0022
     76  CG2        9.0970  -34.4800    5.8020 C.3    56  ILE56       0.0022
     77  CD1       11.4660  -34.7590    3.8810 C.3    56  ILE56       0.0001
     78  N         11.6030  -30.3210    1.6860 N.3    59  TRP59      -0.1241
     79  CA        10.9760  -30.3340    0.3880 C.3    59  TRP59       0.1605
     80  C         10.3120  -28.9860    0.1700 C.2    59  TRP59       0.2264
     81  O         10.4290  -28.4190   -0.9130 O.2    59  TRP59      -0.2867
     82  CB         9.9200  -31.4180    0.2880 C.3    59  TRP59       0.0550
     83  CG        10.3930  -32.6710   -0.4320 C.ar   59  TRP59       0.0003
     84  CD1       11.4220  -33.4230    0.0600 C.ar   59  TRP59       0.0946
     85  CD2        9.8910  -33.1690   -1.6290 C.ar   59  TRP59       0.0152
     86  NE1       11.5650  -34.3950   -0.8140 N.ar   59  TRP59      -0.2442
     87  CE2       10.6760  -34.3030   -1.8160 C.ar   59  TRP59       0.0810
     88  CE3        8.8940  -32.8760   -2.5330 C.ar   59  TRP59       0.0012
     89  CZ2       10.5150  -35.1330   -2.9090 C.ar   59  TRP59       0.0191
     90  CZ3        8.7180  -33.7200   -3.6190 C.ar   59  TRP59       0.0001
     91  CH2        9.5250  -34.8260   -3.8100 C.ar   59  TRP59       0.0015
     92  N         12.0400  -35.9010    9.2940 N.3    82  TYR82      -0.1241
     93  CA        11.1390  -36.5210   10.2470 C.3    82  TYR82       0.1605
     94  C         11.6450  -36.5360   11.6800 C.2    82  TYR82       0.2264
     95  O         11.0490  -37.1920   12.5410 O.2    82  TYR82      -0.2867
     96  CB        10.8700  -37.9430    9.7840 C.3    82  TYR82       0.0534
     97  CG        10.1710  -38.0240    8.4280 C.ar   82  TYR82      -0.0201
     98  CD1        8.8080  -37.8080    8.3580 C.ar   82  TYR82      -0.0009
     99  CD2       10.9160  -38.3350    7.2920 C.ar   82  TYR82      -0.0009
    100  CE1        8.1940  -37.9320    7.1390 C.ar   82  TYR82       0.0417
    101  CE2       10.3060  -38.4550    6.0720 C.ar   82  TYR82       0.0417
    102  CZ         8.9480  -38.2470    6.0180 C.ar   82  TYR82       0.1957
    103  OH         8.3050  -38.4080    4.8140 O.3    82  TYR82      -0.2866
    104  N         10.1420  -42.4670    9.9930 N.3    87  HIS87      -0.1241
    105  CA         8.9670  -42.8830    9.2730 C.3    87  HIS87       0.1621
    106  C          8.9430  -44.3890    9.4980 C.2    87  HIS87       0.2264
    107  O          9.8040  -45.0650    8.9100 O.2    87  HIS87      -0.2867
    108  CB         9.0960  -42.5080    7.7920 C.3    87  HIS87       0.0745
    109  CG         7.6990  -42.4820    7.1480 C.ar   87  HIS87       0.0817
    110  ND1        6.7120  -41.5850    7.1130 N.ar   87  HIS87      -0.2268
    111  CD2        7.1930  -43.6260    6.5730 C.ar   87  HIS87       0.1154
    112  CE1        5.6620  -42.1390    6.5490 C.ar   87  HIS87       0.1986
    113  NE2        5.9670  -43.3700    6.2370 N.ar   87  HIS87      -0.2212
    114  N         10.6460  -47.5020    7.5090 N.3    90  ILE90      -0.1231
    115  CA        11.3540  -47.0390    6.3180 C.3    90  ILE90       0.1692
    116  C         12.5180  -46.1630    6.7880 C.2    90  ILE90       0.2591
    117  O         13.6790  -46.5100    6.5780 O.2    90  ILE90      -0.2718
    118  CB        10.3620  -46.2340    5.4140 C.3    90  ILE90       0.0266
    119  CG1        9.3340  -47.1860    4.8510 C.3    90  ILE90       0.0019
    120  CG2       11.0440  -45.6080    4.2100 C.3    90  ILE90       0.0020
    121  CD1        7.9110  -46.6220    4.8850 C.3    90  ILE90       0.0001
    122  N         12.2470  -45.0260    7.4560 N.am   91  ILE91      -0.1980
    123  CA        13.2900  -44.0860    7.8120 C.3    91  ILE91       0.1595
    124  C         13.5110  -44.1310    9.3190 C.2    91  ILE91       0.2287
    125  O         12.5460  -44.0720   10.1050 O.2    91  ILE91      -0.2864
    126  CB        12.8710  -42.6730    7.3280 C.3    91  ILE91       0.0276
    127  CG1       12.8080  -42.6580    5.7920 C.3    91  ILE91       0.0022
    128  CG2       13.8900  -41.6350    7.7660 C.3    91  ILE91       0.0022
    129  CD1       11.8150  -41.6330    5.1870 C.3    91  ILE91       0.0001
    130  N         17.2160  -36.8090   -1.6620 N.3    99  PHE99      -0.1241
    131  CA        16.1510  -37.0100   -2.6230 C.3    99  PHE99       0.1605
    132  C         16.6560  -36.4650   -3.9390 C.2    99  PHE99       0.2264
    133  O         17.2910  -35.4020   -3.9710 O.2    99  PHE99      -0.2867
    134  CB        14.8780  -36.2410   -2.2780 C.3    99  PHE99       0.0534
    135  CG        13.9780  -36.8600   -1.2270 C.ar   99  PHE99      -0.0203
    136  CD1       14.1800  -36.5900    0.1190 C.ar   99  PHE99      -0.0042
    137  CD2       12.9580  -37.6860   -1.6340 C.ar   99  PHE99      -0.0042
    138  CE1       13.3550  -37.1460    1.0820 C.ar   99  PHE99      -0.0003
    139  CE2       12.1330  -38.2410   -0.6680 C.ar   99  PHE99      -0.0003
    140  CZ        12.3250  -37.9740    0.6860 C.ar   99  PHE99      -0.0000
@<TRIPOS>BOND
     1    35    34    2
     2    34    33    1
     3    33    32    1
     4    33    36    1
     5    36    37    1
     6    43    44    1
     7     1     2    1
     8    37    38    1
     9    46    45    2
    10    45    44    1
    11    44    47    1
    12     2     3    1
    13     2     5    1
    14     4     3    2
    15    38    39    1
    16    47    48    1
    17    39    40    2
    18     5     6    1
    19     7     6   ar
    20     7     9   ar
    21    40    41    1
    22    40    42    1
    23     6     8   ar
    24    48    49   ar
    25    48    50   ar
    26     9    11   ar
    27    49    51   ar
    28    50    52   ar
    29     8    10   ar
    30   133   132    2
    31   132   131    1
    32    27    26    2
    33    26    25    1
    34    91    90   ar
    35    91    89   ar
    36    11    10   ar
    37    11    12    1
    38    90    88   ar
    39    51    53   ar
    40    52    53   ar
    41    89    87   ar
    42    30    29   ar
    43    31    29   ar
    44   131   134    1
    45   131   130    1
    46    25    24    1
    47    25    28    1
    48    88    85   ar
    49    29    28    1
    50   134   135    1
    51    24    15   am
    52    87    85   ar
    53    87    86   ar
    54   137   135   ar
    55   137   139   ar
    56    85    83   ar
    57   135   136   ar
    58    62    60   ar
    59    81    80    2
    60    86    84   ar
    61    13    14    1
    62    15    16    2
    63    15    14    1
    64   139   140   ar
    65    83    84   ar
    66    83    82    1
    67    14    17    1
    68    60    61   ar
    69    60    59    1
    70   136   138   ar
    71    80    79    1
    72    68    67    1
    73    82    79    1
    74    79    78    1
    75   140   138   ar
    76    69    67    1
    77    59    58    2
    78    67    64    1
    79    19    21   ar
    80    19    18   ar
    81    17    18    1
    82    21    23   ar
    83    18    20   ar
    84    23    22   ar
    85    20    22   ar
    86    58    55    1
    87    64    63    1
    88    64    65    1
    89    63    56   am
    90    57    56    2
    91    56    55    1
    92    73    72    2
    93    55    54    1
    94    65    70   am
    95    65    66    2
    96    75    77    1
    97    75    74    1
    98    70    71    1
    99   120   118    1
   100    72    71    1
   101   103   102    1
   102   119   121    1
   103   119   118    1
   104    71    74    1
   105    74    76    1
   106   129   127    1
   107   118   115    1
   108   127   126    1
   109   102   101   ar
   110   102   100   ar
   111   101    99   ar
   112   113   112   ar
   113   113   111   ar
   114   115   116    1
   115   115   114    1
   116   112   110   ar
   117   111   109   ar
   118   117   116    2
   119   116   122   am
   120   110   109   ar
   121   100    98   ar
   122   109   108    1
   123    99    97   ar
   124   126   128    1
   125   126   123    1
   126   122   123    1
   127   108   105    1
   128   123   124    1
   129    98    97   ar
   130    97    96    1
   131   107   106    2
   132   105   106    1
   133   105   104    1
   134    92    93    1
   135   124   125    2
   136    96    93    1
   137    93    94    1
   138    94    95    2
