@<TRIPOS>MOLECULE
tmp/1fkwA00.pdb
 170 161 0 0 0
SMALL
GASTEIGER

@<TRIPOS>ATOM
      1  N          6.0890   23.8960   31.8580 N.3    14  HIS14      -0.1241
      2  CA         7.2420   23.0500   32.2120 C.3    14  HIS14       0.1621
      3  C          7.9120   22.5170   30.9560 C.2    14  HIS14       0.2264
      4  O          7.2400   22.0020   30.0800 O.2    14  HIS14      -0.2867
      5  CB         6.7800   21.8680   33.0440 C.3    14  HIS14       0.0745
      6  CG         6.0600   22.2430   34.2930 C.ar   14  HIS14       0.0817
      7  ND1        6.6190   22.0930   35.5430 N.ar   14  HIS14      -0.2268
      8  CD2        4.7920   22.6690   34.4970 C.ar   14  HIS14       0.1154
      9  CE1        5.7230   22.4050   36.4650 C.ar   14  HIS14       0.1986
     10  NE2        4.6030   22.7600   35.8590 N.ar   14  HIS14      -0.2212
     11  N          9.7860   19.8450   30.5470 N.3    16  ASP16      -0.1239
     12  CA         9.5670   18.4000   30.4650 C.3    16  ASP16       0.1674
     13  C          8.1120   18.0060   30.2130 C.2    16  ASP16       0.2266
     14  O          7.7950   16.8200   30.1080 O.2    16  ASP16      -0.2867
     15  CB        10.1230   17.6650   31.6920 C.3    16  ASP16       0.1410
     16  CG         9.6870   18.2760   33.0210 C.2    16  ASP16       0.3668
     17  OD1        8.8370   19.1980   33.0240 O.co2  16  ASP16      -0.2456
     18  OD2       10.2320   17.8440   34.0630 O.co2  16  ASP16      -0.2456
     19  N         -4.2500   14.8580   40.6550 N.3    55  LEU55      -0.1245
     20  CA        -2.9280   15.4410   40.4940 C.3    55  LEU55       0.1561
     21  C         -1.8650   14.3280   40.5040 C.2    55  LEU55       0.2260
     22  O         -0.9650   14.3300   39.6670 O.2    55  LEU55      -0.2867
     23  CB        -2.6560   16.5090   41.5590 C.3    55  LEU55       0.0270
     24  CG        -1.3170   17.2210   41.4060 C.3    55  LEU55       0.0019
     25  CD1       -1.3030   17.9310   40.0720 C.3    55  LEU55       0.0001
     26  CD2       -1.0990   18.1800   42.5370 C.3    55  LEU55       0.0001
     27  N         -2.1480   12.2680   37.1280 N.3    58  PHE58      -0.1227
     28  CA        -1.6530   13.0230   35.9850 C.3    58  PHE58       0.1736
     29  C         -0.1050   13.0730   36.0470 C.2    58  PHE58       0.2595
     30  O          0.5990   12.8600   35.0590 O.2    58  PHE58      -0.2718
     31  CB        -2.2860   14.4360   36.0370 C.3    58  PHE58       0.0547
     32  CG        -1.3080   15.5530   35.8310 C.ar   58  PHE58      -0.0202
     33  CD1       -0.8940   15.9020   34.5570 C.ar   58  PHE58      -0.0042
     34  CD2       -0.7450   16.2080   36.9240 C.ar   58  PHE58      -0.0042
     35  CE1        0.0610   16.8670   34.3780 C.ar   58  PHE58      -0.0003
     36  CE2        0.2170   17.1770   36.7510 C.ar   58  PHE58      -0.0003
     37  CZ         0.6210   17.5090   35.4850 C.ar   58  PHE58      -0.0000
     38  N          0.4150   13.3110   37.2400 N.am   59  LEU59      -0.1980
     39  CA         1.8440   13.4030   37.4370 C.3    59  LEU59       0.1596
     40  C          2.5900   12.1390   36.9750 C.2    59  LEU59       0.2287
     41  O          3.7750   12.1990   36.6690 O.2    59  LEU59      -0.2864
     42  CB         2.1380   13.7130   38.9140 C.3    59  LEU59       0.0297
     43  CG         2.0200   15.1710   39.3840 C.3    59  LEU59       0.0022
     44  CD1        2.3120   15.2400   40.8600 C.3    59  LEU59       0.0001
     45  CD2        3.0080   16.0420   38.6470 C.3    59  LEU59       0.0001
     46  N          4.4980   11.3200   33.3220 N.3    62  PHE62      -0.1241
     47  CA         5.9240   11.5800   33.0520 C.3    62  PHE62       0.1605
     48  C          6.7680   10.3350   33.0790 C.2    62  PHE62       0.2264
     49  O          7.8450   10.3010   32.4840 O.2    62  PHE62      -0.2867
     50  CB         6.5340   12.5660   34.0650 C.3    62  PHE62       0.0534
     51  CG         5.9780   13.9670   33.9660 C.ar   62  PHE62      -0.0203
     52  CD1        4.6890   14.2510   34.4030 C.ar   62  PHE62      -0.0042
     53  CD2        6.7430   15.0010   33.4310 C.ar   62  PHE62      -0.0042
     54  CE1        4.1640   15.5400   34.3030 C.ar   62  PHE62      -0.0003
     55  CE2        6.2290   16.2770   33.3320 C.ar   62  PHE62      -0.0003
     56  CZ         4.9280   16.5490   33.7700 C.ar   62  PHE62      -0.0000
     57  N         10.0930   10.4590   30.5440 N.3    66  MET66      -0.1245
     58  CA        11.2450   11.0910   31.1630 C.3    66  MET66       0.1570
     59  C         12.4890   10.2370   31.0520 C.2    66  MET66       0.2261
     60  O         13.5470   10.7450   30.7230 O.2    66  MET66      -0.2867
     61  CB        10.9860   11.4400   32.6320 C.3    66  MET66       0.0387
     62  CG        10.0250   12.6080   32.8550 C.3    66  MET66       0.0595
     63  SD        10.6690   14.0780   32.0430 S.3    66  MET66      -0.1393
     64  CE        11.9910   14.5350   33.1880 C.3    66  MET66       0.0692
     65  N         11.5380   23.7990   35.0040 N.3    99  TYR99      -0.1227
     66  CA        11.8240   22.3680   35.0120 C.3    99  TYR99       0.1736
     67  C         12.6660   22.0100   36.2160 C.2    99  TYR99       0.2596
     68  O         13.2200   22.8750   36.8780 O.2    99  TYR99      -0.2718
     69  CB        12.5600   21.9350   33.7290 C.3    99  TYR99       0.0548
     70  CG        13.9540   22.5090   33.6010 C.ar   99  TYR99      -0.0200
     71  CD1       14.1600   23.7840   33.0770 C.ar   99  TYR99      -0.0009
     72  CD2       15.0600   21.7970   34.0360 C.ar   99  TYR99      -0.0009
     73  CE1       15.4180   24.3210   32.9990 C.ar   99  TYR99       0.0417
     74  CE2       16.3340   22.3300   33.9590 C.ar   99  TYR99       0.0417
     75  CZ        16.5060   23.5940   33.4410 C.ar   99  TYR99       0.1957
     76  OH        17.7750   24.1310   33.3800 O.3    99  TYR99      -0.2866
     77  N         12.7590   20.7250   36.5070 N.am  100  SER100     -0.1952
     78  CA        13.5760   20.2860   37.6040 C.3   100  SER100      0.1924
     79  C         14.9070   19.7900   37.0450 C.2   100  SER100      0.2314
     80  O         14.9520   18.7910   36.3240 O.2   100  SER100     -0.2863
     81  CB        12.8840   19.1560   38.3520 C.3   100  SER100      0.2116
     82  OG        13.8270   18.4960   39.1920 O.3   100  SER100     -0.2180
     83  N         15.6180   15.9310   38.0160 N.3   103  LEU103     -0.1245
     84  CA        14.9510   14.8350   37.3200 C.3   103  LEU103      0.1561
     85  C         15.5030   14.5620   35.9310 C.2   103  LEU103      0.2260
     86  O         14.9870   13.7160   35.2230 O.2   103  LEU103     -0.2867
     87  CB        13.4510   15.0830   37.2220 C.3   103  LEU103      0.0270
     88  CG        12.6580   15.2400   38.5260 C.3   103  LEU103      0.0019
     89  CD1       11.1680   15.3960   38.2440 C.3   103  LEU103      0.0001
     90  CD2       12.8720   14.0640   39.3990 C.3   103  LEU103      0.0001
     91  N         14.4690    7.7010   37.7960 N.3   114  TRP114     -0.1241
     92  CA        14.2380    6.7680   36.6880 C.3   114  TRP114      0.1605
     93  C         15.0950    5.4910   36.6210 C.2   114  TRP114      0.2264
     94  O         15.2710    4.9210   35.5460 O.2   114  TRP114     -0.2867
     95  CB        14.3790    7.5150   35.3630 C.3   114  TRP114      0.0550
     96  CG        13.9130    8.9200   35.4230 C.ar  114  TRP114      0.0003
     97  CD1       14.6770   10.0360   35.2900 C.ar  114  TRP114      0.0946
     98  CD2       12.5730    9.3660   35.6570 C.ar  114  TRP114      0.0152
     99  NE1       13.8940   11.1540   35.4230 N.ar  114  TRP114     -0.2442
    100  CE2       12.5970   10.7740   35.6500 C.ar  114  TRP114      0.0810
    101  CE3       11.3530    8.7110   35.8750 C.ar  114  TRP114      0.0012
    102  CZ2       11.4500   11.5530   35.8550 C.ar  114  TRP114      0.0191
    103  CZ3       10.2070    9.4740   36.0780 C.ar  114  TRP114      0.0001
    104  CH2       10.2660   10.8900   36.0650 C.ar  114  TRP114      0.0015
    105  N         12.8290   24.2210   39.3680 N.3   150  CYS150     -0.1235
    106  CA        11.8890   23.6600   40.3370 C.3   150  CYS150      0.1677
    107  C         12.4200   22.8040   41.4700 C.2   150  CYS150      0.2270
    108  O         13.2660   21.9330   41.2800 O.2   150  CYS150     -0.2867
    109  CB        10.8460   22.7980   39.6320 C.3   150  CYS150      0.0956
    110  SG         9.8730   23.6150   38.4350 S.3   150  CYS150     -0.0801
    111  N         11.1760   20.0090   44.2310 N.3   152  MET152     -0.1245
    112  CA        10.1030   19.0210   44.1980 C.3   152  MET152      0.1570
    113  C          9.5990   18.8640   45.5970 C.2   152  MET152      0.2261
    114  O         10.4020   18.7310   46.5320 O.2   152  MET152     -0.2867
    115  CB        10.6200   17.6850   43.6700 C.3   152  MET152      0.0387
    116  CG        10.9770   17.7360   42.1930 C.3   152  MET152      0.0595
    117  SD         9.5180   18.1160   41.1590 S.3   152  MET152     -0.1393
    118  CE        10.0450   19.5200   40.5300 C.3   152  MET152      0.0692
    119  N          7.3280   22.8170   42.8220 N.3   180  ALA180     -0.1231
    120  CA         6.3750   22.0340   42.0450 C.3   180  ALA180      0.1694
    121  C          6.1970   20.6590   42.6630 C.2   180  ALA180      0.2592
    122  O          6.7480   20.3670   43.7300 O.2   180  ALA180     -0.2718
    123  CB         6.8520   21.9060   40.6090 C.3   180  ALA180      0.0304
    124  N          5.3700   19.8300   42.0360 N.am  181  GLY181     -0.1957
    125  CA         5.1900   18.4850   42.5410 C.3   181  GLY181      0.1869
    126  C          3.8370   18.1580   43.0960 C.2   181  GLY181      0.2309
    127  O          2.8760   18.8610   42.8220 O.2   181  GLY181     -0.2863
    128  N          3.8650   26.6470   43.3240 N.3   211  HIS211     -0.1241
    129  CA         2.6020   26.0420   42.8750 C.3   211  HIS211      0.1621
    130  C          1.8040   25.9330   44.1630 C.2   211  HIS211      0.2264
    131  O          2.3240   25.4050   45.1640 O.2   211  HIS211     -0.2867
    132  CB         2.8060   24.6220   42.3400 C.3   211  HIS211      0.0745
    133  CG         3.3470   24.5500   40.9510 C.ar  211  HIS211      0.0817
    134  ND1        4.6270   24.9350   40.6260 N.ar  211  HIS211     -0.2268
    135  CD2        2.8080   24.0440   39.8150 C.ar  211  HIS211      0.1154
    136  CE1        4.8590   24.6520   39.3540 C.ar  211  HIS211      0.1986
    137  NE2        3.7720   24.1030   38.8350 N.ar  211  HIS211     -0.2212
    138  N         -4.0050   24.7330   43.7590 N.3   214  GLU214     -0.1245
    139  CA        -4.6670   24.1620   42.5940 C.3   214  GLU214      0.1567
    140  C         -5.5970   23.0970   43.1470 C.2   214  GLU214      0.2260
    141  O         -6.7820   23.0410   42.8390 O.2   214  GLU214     -0.2867
    142  CB        -3.6580   23.5140   41.6800 C.3   214  GLU214      0.0388
    143  CG        -4.2780   22.5020   40.7460 C.3   214  GLU214      0.1160
    144  CD        -3.3090   22.0100   39.7020 C.2   214  GLU214      0.3649
    145  OE1       -2.0830   21.8400   40.0080 O.co2 214  GLU214     -0.2457
    146  OE2       -3.7830   21.8360   38.5610 O.co2 214  GLU214     -0.2457
    147  N         -6.6990   18.1940   35.5460 N.3   266  THR266     -0.1218
    148  CA        -6.1050   17.6190   36.7500 C.3   266  THR266      0.1862
    149  C         -7.2030   17.3770   37.7980 C.2   266  THR266      0.2287
    150  O         -6.9010   17.1380   38.9780 O.2   266  THR266     -0.2866
    151  CB        -5.1520   18.5780   37.3980 C.3   266  THR266      0.1770
    152  OG1       -5.9040   19.7240   37.8290 O.3   266  THR266     -0.2211
    153  CG2       -4.0280   18.9620   36.4370 C.3   266  THR266      0.0375
    154  N          0.8710   25.3690   30.9840 N.3   292  GLU292     -0.1231
    155  CA         1.4440   24.4530   31.9710 C.3   292  GLU292      0.1699
    156  C          2.1910   23.2090   31.4800 C.2   292  GLU292      0.2592
    157  O          3.4080   23.1390   31.6930 O.2   292  GLU292     -0.2718
    158  CB         0.5280   24.1460   33.1560 C.3   292  GLU292      0.0402
    159  CG         1.4060   23.8080   34.3790 C.3   292  GLU292      0.1161
    160  CD         0.6670   23.3170   35.5920 C.2   292  GLU292      0.3649
    161  OE1       -0.5200   23.0110   35.4440 O.co2 292  GLU292     -0.2457
    162  OE2        1.2900   23.2610   36.6900 O.co2 292  GLU292     -0.2457
    163  N          1.5070   22.2480   30.8510 N.am  293  ASP293     -0.1974
    164  CA         2.1370   21.0120   30.3070 C.3   293  ASP293      0.1709
    165  C          1.3850   20.6970   28.9950 C.2   293  ASP293      0.2293
    166  O          0.5850   19.7610   28.9280 O.2   293  ASP293     -0.2864
    167  CB         1.9480   19.8120   31.2580 C.3   293  ASP293      0.1436
    168  CG         2.7080   19.9440   32.5730 C.2   293  ASP293      0.3671
    169  OD1        3.9340   19.7310   32.5830 O.co2 293  ASP293     -0.2456
    170  OD2        2.0690   20.1990   33.6190 O.co2 293  ASP293     -0.2456
@<TRIPOS>BOND
     1   166   165    2
     2   165   164    1
     3     4     3    2
     4    14    13    2
     5    13    12    1
     6   164   163    1
     7   164   167    1
     8    12    11    1
     9    12    15    1
    10    57    58    1
    11    60    59    2
    12   163   156   am
    13     3     2    1
    14   154   155    1
    15    59    58    1
    16    58    61    1
    17   167   168    1
    18   156   157    2
    19   156   155    1
    20    15    16    1
    21     1     2    1
    22   155   158    1
    23    63    62    1
    24    63    64    1
    25     2     5    1
    26    49    48    2
    27   168   169   ar
    28   168   170   ar
    29    61    62    1
    30    73    71   ar
    31    73    75   ar
    32    16    17   ar
    33    16    18   ar
    34     5     6    1
    35    47    48    1
    36    47    46    1
    37    47    50    1
    38    71    70   ar
    39   158   159    1
    40    55    53   ar
    41    55    56   ar
    42    76    75    1
    43    53    51   ar
    44    75    74   ar
    45    70    69    1
    46    70    72   ar
    47    69    66    1
    48    56    54   ar
    49    74    72   ar
    50    51    50    1
    51    51    52   ar
    52     6     8   ar
    53     6     7   ar
    54    54    52   ar
    55    35    33   ar
    56    35    37   ar
    57   159   160    1
    58     8    10   ar
    59    33    32   ar
    60    65    66    1
    61    66    67    1
    62    30    29    2
    63    86    85    2
    64    97    96   ar
    65    97    99   ar
    66    95    96    1
    67    95    92    1
    68    96    98   ar
    69    99   100   ar
    70   161   160   ar
    71    37    36   ar
    72     7     9   ar
    73    94    93    2
    74   147   148    1
    75   160   162   ar
    76   100    98   ar
    77   100   102   ar
    78    98   101   ar
    79    32    31    1
    80    32    34   ar
    81   102   104   ar
    82    10     9   ar
    83   101   103   ar
    84    85    84    1
    85    28    31    1
    86    28    29    1
    87    28    27    1
    88    29    38   am
    89   104   103   ar
    90    67    77   am
    91    67    68    2
    92    80    79    2
    93   153   151    1
    94    77    78    1
    95    93    92    1
    96    41    40    2
    97    92    91    1
    98   148   151    1
    99   148   149    1
   100    36    34   ar
   101    40    39    1
   102    79    78    1
   103    87    84    1
   104    87    88    1
   105    38    39    1
   106    84    83    1
   107   151   152    1
   108    39    42    1
   109    78    81    1
   110   149   150    2
   111    89    88    1
   112    81    82    1
   113   110   109    1
   114    88    90    1
   115   146   144   ar
   116    45    43    1
   117   137   136   ar
   118   137   135   ar
   119    42    43    1
   120   136   134   ar
   121   105   106    1
   122    43    44    1
   123   109   106    1
   124    22    21    2
   125   144   145   ar
   126   144   143    1
   127   135   133   ar
   128    25    24    1
   129   106   107    1
   130    20    21    1
   131    20    19    1
   132    20    23    1
   133   118   117    1
   134   123   120    1
   135   134   133   ar
   136   143   142    1
   137   133   132    1
   138   117   116    1
   139   108   107    2
   140    24    23    1
   141    24    26    1
   142   142   139    1
   143   124   125    1
   144   124   121   am
   145   120   121    1
   146   120   119    1
   147   116   115    1
   148   132   129    1
   149   125   126    1
   150   139   140    1
   151   139   138    1
   152   121   122    2
   153   127   126    2
   154   141   140    2
   155   129   128    1
   156   129   130    1
   157   115   112    1
   158   130   131    2
   159   112   111    1
   160   112   113    1
   161   113   114    2
