@<TRIPOS>MOLECULE
tmp/1fl3B00.pdb
 113 112 0 0 0
SMALL
GASTEIGER

@<TRIPOS>ATOM
      1  N         77.0200    2.7750  -38.7780 N.3    30  HIS30      -0.1241
      2  CA        77.4130    1.3830  -38.9570 C.3    30  HIS30       0.1621
      3  C         78.2640    1.1950  -40.2260 C.2    30  HIS30       0.2264
      4  O         78.1770    1.9890  -41.1630 O.2    30  HIS30      -0.2867
      5  CB        76.1430    0.5340  -38.9980 C.3    30  HIS30       0.0745
      6  CG        76.3960   -0.9360  -38.9910 C.ar   30  HIS30       0.0817
      7  ND1       76.8060   -1.6240  -40.1110 N.ar   30  HIS30      -0.2268
      8  CD2       76.2940   -1.8520  -38.0000 C.ar   30  HIS30       0.1154
      9  CE1       76.9440   -2.9030  -39.8120 C.ar   30  HIS30       0.1986
     10  NE2       76.6390   -3.0670  -38.5370 N.ar   30  HIS30      -0.2212
     11  N         71.9060    4.4320  -37.3850 N.3    36  TYR36      -0.1241
     12  CA        70.7170    3.9620  -36.6870 C.3    36  TYR36       0.1605
     13  C         70.1570    4.8110  -35.5620 C.2    36  TYR36       0.2264
     14  O         70.1270    4.3930  -34.4010 O.2    36  TYR36      -0.2867
     15  CB        70.9390    2.5340  -36.2090 C.3    36  TYR36       0.0534
     16  CG        71.0960    1.5870  -37.3590 C.ar   36  TYR36      -0.0201
     17  CD1       72.3080    1.4990  -38.0540 C.ar   36  TYR36      -0.0009
     18  CD2       70.0230    0.8350  -37.8040 C.ar   36  TYR36      -0.0009
     19  CE1       72.4440    0.6850  -39.1670 C.ar   36  TYR36       0.0417
     20  CE2       70.1340    0.0130  -38.9250 C.ar   36  TYR36       0.0417
     21  CZ        71.3470   -0.0580  -39.6070 C.ar   36  TYR36       0.1957
     22  OH        71.4490   -0.8370  -40.7480 O.3    36  TYR36      -0.2866
     23  N         66.6700    7.1070  -34.6810 N.3    38  TYR38      -0.1241
     24  CA        65.3070    7.3370  -35.1240 C.3    38  TYR38       0.1605
     25  C         64.6660    8.3230  -34.1490 C.2    38  TYR38       0.2264
     26  O         65.1400    8.4480  -33.0190 O.2    38  TYR38      -0.2867
     27  CB        64.5210    6.0220  -35.2120 C.3    38  TYR38       0.0534
     28  CG        64.2770    5.2880  -33.9120 C.ar   38  TYR38      -0.0201
     29  CD1       63.1270    5.5260  -33.1760 C.ar   38  TYR38      -0.0009
     30  CD2       65.1830    4.3220  -33.4360 C.ar   38  TYR38      -0.0009
     31  CE1       62.8630    4.8390  -32.0120 C.ar   38  TYR38       0.0417
     32  CE2       64.9240    3.6140  -32.2520 C.ar   38  TYR38       0.0417
     33  CZ        63.7580    3.8830  -31.5480 C.ar   38  TYR38       0.1957
     34  OH        63.4500    3.2140  -30.3820 O.3    38  TYR38      -0.2866
     35  N         60.8200   10.0520  -32.6270 N.3    40  TYR40      -0.1241
     36  CA        59.4010    9.8210  -32.5060 C.3    40  TYR40       0.1605
     37  C         58.8030   10.8660  -31.5930 C.2    40  TYR40       0.2264
     38  O         59.5010   11.5070  -30.8020 O.2    40  TYR40      -0.2867
     39  CB        59.1070    8.3950  -32.0160 C.3    40  TYR40       0.0534
     40  CG        59.5880    8.0630  -30.6260 C.ar   40  TYR40      -0.0201
     41  CD1       58.7800    8.2920  -29.5120 C.ar   40  TYR40      -0.0009
     42  CD2       60.8340    7.4870  -30.4260 C.ar   40  TYR40      -0.0009
     43  CE1       59.2060    7.9410  -28.2320 C.ar   40  TYR40       0.0417
     44  CE2       61.2740    7.1380  -29.1660 C.ar   40  TYR40       0.0417
     45  CZ        60.4640    7.3590  -28.0710 C.ar   40  TYR40       0.1957
     46  OH        60.9040    6.9780  -26.8230 O.3    40  TYR40      -0.2866
     47  N         53.2210    6.5930  -29.0740 N.3    48  PRO48      -0.2116
     48  CA        54.3500    7.2440  -29.7460 C.3    48  PRO48       0.1372
     49  C         54.1810    7.1040  -31.2590 C.2    48  PRO48       0.2244
     50  O         53.6800    6.0850  -31.7520 O.2    48  PRO48      -0.2868
     51  CB        55.5610    6.4700  -29.2300 C.3    48  PRO48       0.0268
     52  CG        55.1080    6.0270  -27.8470 C.3    48  PRO48       0.0207
     53  CD        53.6830    5.5940  -28.0940 C.3    48  PRO48       0.0892
     54  N         68.1540    4.9800  -30.3840 N.3    94  GLN94      -0.1231
     55  CA        69.0160    4.2550  -31.3030 C.3    94  GLN94       0.1698
     56  C         68.6090    2.7980  -31.4750 C.2    94  GLN94       0.2592
     57  O         68.0720    2.1790  -30.5640 O.2    94  GLN94      -0.2718
     58  CB        70.4760    4.3430  -30.8250 C.3    94  GLN94       0.0381
     59  CG        70.7490    3.7420  -29.4320 C.3    94  GLN94       0.0905
     60  CD        70.8000    2.2120  -29.4190 C.2    94  GLN94       0.2608
     61  OE1       71.2690    1.6020  -30.3590 O.2    94  GLN94      -0.2717
     62  NE2       70.3450    1.6020  -28.3310 N.am   94  GLN94      -0.0878
     63  N         68.8360    2.2620  -32.6620 N.am   95  ASN95      -0.1960
     64  CA        68.5230    0.8690  -32.8940 C.3    95  ASN95       0.1819
     65  C         69.6890    0.2210  -33.6000 C.2    95  ASN95       0.2621
     66  O         69.5300   -0.5220  -34.5650 O.2    95  ASN95      -0.2715
     67  CB        67.2100    0.6860  -33.6710 C.3    95  ASN95       0.1195
     68  CG        67.2240    1.3070  -35.0640 C.2    95  ASN95       0.2630
     69  OD1       66.3190    1.0480  -35.8500 O.2    95  ASN95      -0.2716
     70  ND2       68.2190    2.1210  -35.3700 N.am   95  ASN95      -0.0877
     71  N         70.8760    0.5260  -33.0920 N.am   96  LEU96      -0.1963
     72  CA        72.1070   -0.0280  -33.6150 C.3    96  LEU96       0.1728
     73  C         72.4330   -1.3370  -32.8860 C.2    96  LEU96       0.2616
     74  O         72.7540   -2.3380  -33.5170 O.2    96  LEU96      -0.2715
     75  CB        73.2650    0.9580  -33.4070 C.3    96  LEU96       0.0311
     76  CG        74.6650    0.4280  -33.7640 C.3    96  LEU96       0.0022
     77  CD1       74.7300    0.1140  -35.2590 C.3    96  LEU96       0.0001
     78  CD2       75.7340    1.4510  -33.3830 C.3    96  LEU96       0.0001
     79  N         72.3390   -1.3110  -31.5580 N.am   97  GLU97      -0.1963
     80  CA        72.6670   -2.4650  -30.7190 C.3    97  GLU97       0.1733
     81  C         71.5590   -2.8880  -29.7890 C.2    97  GLU97       0.2616
     82  O         70.8710   -2.0560  -29.2120 O.2    97  GLU97      -0.2715
     83  CB        73.9090   -2.1760  -29.8820 C.3    97  GLU97       0.0429
     84  CG        75.1690   -2.1080  -30.6910 C.3    97  GLU97       0.1163
     85  CD        76.2560   -1.3670  -29.9740 C.2    97  GLU97       0.3649
     86  OE1       77.3150   -1.1430  -30.5950 O.co2  97  GLU97      -0.2457
     87  OE2       76.0480   -1.0090  -28.7950 O.co2  97  GLU97      -0.2457
     88  N         71.4580   -4.1980  -29.5990 N.am   98  LEU98      -0.1977
     89  CA        70.4140   -4.7910  -28.7870 C.3    98  LEU98       0.1596
     90  C         69.8900   -4.1060  -27.5480 C.2    98  LEU98       0.2287
     91  O         68.7040   -3.8490  -27.4900 O.2    98  LEU98      -0.2864
     92  CB        70.7460   -6.2300  -28.4330 C.3    98  LEU98       0.0297
     93  CG        69.6280   -7.1180  -28.9860 C.3    98  LEU98       0.0022
     94  CD1       69.8400   -8.5540  -28.5600 C.3    98  LEU98       0.0001
     95  CD2       68.2790   -6.5980  -28.4930 C.3    98  LEU98       0.0001
     96  N         68.2770   -1.7380  -26.2870 N.3   100  PRO100     -0.2116
     97  CA        67.7310   -0.4630  -26.7680 C.3   100  PRO100      0.1372
     98  C         67.6430    0.6330  -25.7540 C.2   100  PRO100      0.2244
     99  O         67.1230    0.4400  -24.6590 O.2   100  PRO100     -0.2868
    100  CB        66.3670   -0.8450  -27.3230 C.3   100  PRO100      0.0268
    101  CG        65.9410   -1.9640  -26.4540 C.3   100  PRO100      0.0207
    102  CD        67.2010   -2.7370  -26.1070 C.3   100  PRO100      0.0892
    103  N         66.8050    4.9430  -25.0620 N.3   102  PHE102     -0.1241
    104  CA        66.0500    6.1000  -25.5050 C.3   102  PHE102      0.1605
    105  C         66.4780    7.3810  -24.8010 C.2   102  PHE102      0.2264
    106  O         66.8840    7.3630  -23.6400 O.2   102  PHE102     -0.2867
    107  CB        64.5690    5.8590  -25.2260 C.3   102  PHE102      0.0534
    108  CG        64.1290    4.4500  -25.4910 C.ar  102  PHE102     -0.0203
    109  CD1       64.4620    3.4260  -24.6070 C.ar  102  PHE102     -0.0042
    110  CD2       63.4330    4.1320  -26.6520 C.ar  102  PHE102     -0.0042
    111  CE1       64.1140    2.0940  -24.8750 C.ar  102  PHE102     -0.0003
    112  CE2       63.0820    2.8080  -26.9290 C.ar  102  PHE102     -0.0003
    113  CZ        63.4260    1.7860  -26.0380 C.ar  102  PHE102     -0.0000
@<TRIPOS>BOND
     1     4     3    2
     2    22    21    1
     3     3     2    1
     4     7     9   ar
     5     7     6   ar
     6     9    10   ar
     7    21    19   ar
     8    21    20   ar
     9    19    17   ar
    10     5     6    1
    11     5     2    1
    12     6     8   ar
    13     2     1    1
    14    20    18   ar
    15    10     8   ar
    16    17    16   ar
    17    18    16   ar
    18    11    12    1
    19    16    15    1
    20    12    15    1
    21    12    13    1
    22    69    68    2
    23    13    14    2
    24    70    68   am
    25    77    76    1
    26    27    24    1
    27    27    28    1
    28    24    23    1
    29    24    25    1
    30    68    67    1
    31    66    65    2
    32    25    26    2
    33    28    30   ar
    34    28    29   ar
    35    76    75    1
    36    76    78    1
    37    67    64    1
    38    72    75    1
    39    72    71    1
    40    72    73    1
    41    65    71   am
    42    65    64    1
    43    74    73    2
    44    30    32   ar
    45    29    31   ar
    46    64    63    1
    47    73    79   am
    48    63    56   am
    49    35    36    1
    50    36    39    1
    51    36    37    1
    52    32    33   ar
    53    39    40    1
    54    31    33   ar
    55    50    49    2
    56    37    38    2
    57    79    80    1
    58    33    34    1
    59    56    55    1
    60    56    57    2
    61    55    58    1
    62    55    54    1
    63    49    48    1
    64    58    59    1
    65    80    83    1
    66    80    81    1
    67    84    85    1
    68    84    83    1
    69    40    42   ar
    70    40    41   ar
    71    86    85   ar
    72    42    44   ar
    73    61    60    2
    74    85    87   ar
    75    81    88   am
    76    81    82    2
    77    48    51    1
    78    48    47    1
    79    88    89    1
    80    41    43   ar
    81    59    60    1
    82    60    62   am
    83    51    52    1
    84    44    45   ar
    85    47    53    1
    86    93    94    1
    87    93    95    1
    88    93    92    1
    89    89    92    1
    90    89    90    1
    91    43    45   ar
    92    53    52    1
    93    45    46    1
    94    90    91    2
    95   100    97    1
    96   100   101    1
    97   112   110   ar
    98   112   113   ar
    99    97    96    1
   100    97    98    1
   101   110   108   ar
   102   101   102    1
   103    96   102    1
   104   113   111   ar
   105    98    99    2
   106   104   107    1
   107   104   103    1
   108   104   105    1
   109   108   107    1
   110   108   109   ar
   111   111   109   ar
   112   105   106    2
