@<TRIPOS>MOLECULE
tmp/1fl6C00.pdb
 102 97 0 0 0
SMALL
GASTEIGER

@<TRIPOS>ATOM
      1  N        -27.7600   22.1940   26.7810 N.3    31  HIS31      -0.1241
      2  CA       -27.1350   23.4680   27.1330 C.3    31  HIS31       0.1621
      3  C        -28.1740   24.5630   27.0080 C.2    31  HIS31       0.2264
      4  O        -28.7000   24.8030   25.9180 O.2    31  HIS31      -0.2867
      5  CB       -25.9560   23.7740   26.2050 C.3    31  HIS31       0.0745
      6  CG       -25.3870   25.1480   26.3850 C.ar   31  HIS31       0.0817
      7  ND1      -26.0240   26.2830   25.9330 N.ar   31  HIS31      -0.2268
      8  CD2      -24.2540   25.5690   26.9950 C.ar   31  HIS31       0.1154
      9  CE1      -25.3080   27.3450   26.2570 C.ar   31  HIS31       0.1986
     10  NE2      -24.2300   26.9400   26.9030 N.ar   31  HIS31      -0.2212
     11  N        -29.0640   27.8980   26.4600 N.3    33  ASN33      -0.1240
     12  CA       -29.2730   28.5740   25.1920 C.3    33  ASN33       0.1653
     13  C        -28.7210   27.8010   24.0010 C.2    33  ASN33       0.2266
     14  O        -27.5480   27.4190   23.9770 O.2    33  ASN33      -0.2867
     15  CB       -28.6370   29.9630   25.2440 C.3    33  ASN33       0.1155
     16  CG       -27.2230   29.9340   25.7990 C.2    33  ASN33       0.2627
     17  OD1      -27.0150   29.7040   26.9940 O.2    33  ASN33      -0.2716
     18  ND2      -26.2400   30.1560   24.9280 N.am   33  ASN33      -0.0877
     19  N        -24.9920   19.6490   23.1150 N.3    37  TYR37      -0.1241
     20  CA       -23.6810   19.2230   22.6380 C.3    37  TYR37       0.1605
     21  C        -23.3140   17.8420   23.1700 C.2    37  TYR37       0.2264
     22  O        -22.7190   17.7130   24.2380 O.2    37  TYR37      -0.2867
     23  CB       -22.6150   20.2420   23.0570 C.3    37  TYR37       0.0534
     24  CG       -22.8420   21.6260   22.4910 C.ar   37  TYR37      -0.0201
     25  CD1      -22.7100   21.8760   21.1280 C.ar   37  TYR37      -0.0009
     26  CD2      -23.2020   22.6880   23.3180 C.ar   37  TYR37      -0.0009
     27  CE1      -22.9310   23.1560   20.5980 C.ar   37  TYR37       0.0417
     28  CE2      -23.4290   23.9730   22.8020 C.ar   37  TYR37       0.0417
     29  CZ       -23.2900   24.2000   21.4420 C.ar   37  TYR37       0.1957
     30  OH       -23.4970   25.4660   20.9280 O.3    37  TYR37      -0.2866
     31  N        -21.3100   14.5260   21.8730 N.3    39  GLU39      -0.1245
     32  CA       -20.4490   13.9490   20.8450 C.3    39  GLU39       0.1567
     33  C        -20.1140   12.4690   21.0050 C.2    39  GLU39       0.2260
     34  O        -20.2670   11.8840   22.0840 O.2    39  GLU39      -0.2867
     35  CB       -19.1300   14.7180   20.7600 C.3    39  GLU39       0.0388
     36  CG       -19.2500   16.1400   20.2780 C.3    39  GLU39       0.1160
     37  CD       -19.1540   17.1470   21.4010 C.2    39  GLU39       0.3649
     38  OE1      -18.1110   17.1600   22.0910 O.co2  39  GLU39      -0.2457
     39  OE2      -20.1200   17.9260   21.5860 O.co2  39  GLU39      -0.2457
     40  N        -16.8960    9.8810   20.1430 N.3    41  TYR41      -0.1241
     41  CA       -15.5000    9.7490   19.7620 C.3    41  TYR41       0.1605
     42  C        -15.1910    8.2600   19.7020 C.2    41  TYR41       0.2264
     43  O        -15.8250    7.4650   20.4000 O.2    41  TYR41      -0.2867
     44  CB       -14.6210   10.4480   20.7950 C.3    41  TYR41       0.0534
     45  CG       -14.8430   11.9460   20.8580 C.ar   41  TYR41      -0.0201
     46  CD1      -14.2130   12.8000   19.9460 C.ar   41  TYR41      -0.0009
     47  CD2      -15.7190   12.5080   21.7880 C.ar   41  TYR41      -0.0009
     48  CE1      -14.4520   14.1750   19.9510 C.ar   41  TYR41       0.0417
     49  CE2      -15.9650   13.8800   21.8010 C.ar   41  TYR41       0.0417
     50  CZ       -15.3270   14.7090   20.8740 C.ar   41  TYR41       0.1957
     51  OH       -15.5670   16.0670   20.8470 O.3    41  TYR41      -0.2866
     52  N        -20.5280   15.2310   16.1300 N.3    54  TYR54      -0.1241
     53  CA       -20.4700   16.3150   17.1030 C.3    54  TYR54       0.1605
     54  C        -21.7570   16.7060   17.8230 C.2    54  TYR54       0.2264
     55  O        -21.9960   16.2350   18.9350 O.2    54  TYR54      -0.2867
     56  CB       -19.7940   17.5790   16.5320 C.3    54  TYR54       0.0534
     57  CG       -20.1700   18.0180   15.1360 C.ar   54  TYR54      -0.0201
     58  CD1      -19.8660   17.2290   14.0300 C.ar   54  TYR54      -0.0009
     59  CD2      -20.7490   19.2690   14.9120 C.ar   54  TYR54      -0.0009
     60  CE1      -20.1210   17.6750   12.7340 C.ar   54  TYR54       0.0417
     61  CE2      -21.0070   19.7260   13.6170 C.ar   54  TYR54       0.0417
     62  CZ       -20.6890   18.9220   12.5330 C.ar   54  TYR54       0.1957
     63  OH       -20.9290   19.3590   11.2510 O.3    54  TYR54      -0.2866
     64  N        -19.5000   11.9980   24.6580 N.3    94  PHE94      -0.1241
     65  CA       -19.0340   13.1310   25.4430 C.3    94  PHE94       0.1605
     66  C        -20.1010   14.2080   25.4860 C.2    94  PHE94       0.2264
     67  O        -20.7350   14.5010   24.4750 O.2    94  PHE94      -0.2867
     68  CB       -17.7650   13.6830   24.7890 C.3    94  PHE94       0.0534
     69  CG       -17.0860   14.7700   25.5650 C.ar   94  PHE94      -0.0203
     70  CD1      -16.3750   14.4770   26.7160 C.ar   94  PHE94      -0.0042
     71  CD2      -17.1070   16.0820   25.1040 C.ar   94  PHE94      -0.0042
     72  CE1      -15.6860   15.4760   27.3960 C.ar   94  PHE94      -0.0003
     73  CE2      -16.4230   17.0830   25.7730 C.ar   94  PHE94      -0.0003
     74  CZ       -15.7090   16.7830   26.9190 C.ar   94  PHE94      -0.0000
     75  N        -20.7950   18.0560   25.9890 N.3    96  GLY96      -0.1210
     76  CA       -20.1020   19.3280   25.9810 C.3    96  GLY96       0.1956
     77  C        -21.0380   20.5060   26.1290 C.2    96  GLY96       0.2612
     78  O        -20.9340   21.4920   25.3930 O.2    96  GLY96      -0.2717
     79  N        -21.9560   20.4000   27.0840 N.am   97  SER97      -0.1952
     80  CA       -22.9190   21.4610   27.3420 C.3    97  SER97       0.1924
     81  C        -22.7380   21.9800   28.7570 C.2    97  SER97       0.2314
     82  O        -22.8240   23.1820   29.0070 O.2    97  SER97      -0.2863
     83  CB       -24.3450   20.9320   27.1810 C.3    97  SER97       0.2116
     84  OG       -24.5520   20.4020   25.8840 O.3    97  SER97      -0.2180
     85  N        -20.4100   22.0000   32.4530 N.3    99  VAL99      -0.1245
     86  CA       -19.0740   21.8690   32.9980 C.3    99  VAL99       0.1561
     87  C        -19.1420   21.4570   34.4610 C.2    99  VAL99       0.2260
     88  O        -20.0130   21.8980   35.2020 O.2    99  VAL99      -0.2867
     89  CB       -18.2920   23.1820   32.8660 C.3    99  VAL99       0.0252
     90  CG1      -18.0870   23.4990   31.4040 C.3    99  VAL99       0.0019
     91  CG2      -19.0440   24.3070   33.5360 C.3    99  VAL99       0.0019
     92  N        -16.8310   18.8270   31.9390 N.3   101  ARG101     -0.1245
     93  CA       -17.1790   18.0090   30.7850 C.3   101  ARG101      0.1563
     94  C        -17.1310   16.5460   31.2440 C.2   101  ARG101      0.2260
     95  O        -16.3770   16.2130   32.1550 O.2   101  ARG101     -0.2867
     96  CB       -16.1760   18.2590   29.6540 C.3   101  ARG101      0.0307
     97  CG       -16.2320   19.6580   29.0430 C.3   101  ARG101      0.0489
     98  CD       -17.3080   19.7410   27.9630 C.3   101  ARG101      0.2205
     99  NE       -17.3640   21.0420   27.2910 N.pl3 101  ARG101     -0.0865
    100  CZ       -18.1110   22.0700   27.6910 C.cat 101  ARG101      0.5346
    101  NH1      -18.8810   21.9660   28.7680 N.pl3 101  ARG101      0.1354
    102  NH2      -18.0870   23.2070   27.0090 N.pl3 101  ARG101      0.1354
@<TRIPOS>BOND
     1    63    62    1
     2    62    60   ar
     3    62    61   ar
     4    60    58   ar
     5    61    59   ar
     6    58    57   ar
     7    59    57   ar
     8    57    56    1
     9    52    53    1
    10    56    53    1
    11    53    54    1
    12    54    55    2
    13    42    41    1
    14    42    43    2
    15    41    40    1
    16    41    44    1
    17    46    48   ar
    18    46    45   ar
    19    48    50   ar
    20    36    35    1
    21    36    37    1
    22    27    25   ar
    23    27    29   ar
    24    35    32    1
    25    44    45    1
    26    32    33    1
    27    32    31    1
    28    51    50    1
    29    45    47   ar
    30    50    49   ar
    31    30    29    1
    32    33    34    2
    33    25    24   ar
    34    37    39   ar
    35    37    38   ar
    36    29    28   ar
    37    47    49   ar
    38    24    23    1
    39    24    26   ar
    40    20    23    1
    41    20    19    1
    42    20    21    1
    43    28    26   ar
    44    21    22    2
    45    14    13    2
    46    13    12    1
    47    67    66    2
    48    64    65    1
    49    68    65    1
    50    68    69    1
    51    18    16   am
    52    71    69   ar
    53    71    73   ar
    54    12    15    1
    55    12    11    1
    56    15    16    1
    57    78    77    2
    58    65    66    1
    59    69    70   ar
    60    73    74   ar
    61    16    17    2
    62    84    83    1
    63     4     3    2
    64     7     9   ar
    65     7     6   ar
    66    76    75    1
    67    76    77    1
    68    77    79   am
    69     5     6    1
    70     5     2    1
    71     9    10   ar
    72     6     8   ar
    73    70    72   ar
    74     1     2    1
    75    10     8   ar
    76    74    72   ar
    77     3     2    1
    78   102   100    1
    79    79    80    1
    80    83    80    1
    81    99   100    2
    82    99    98    1
    83    80    81    1
    84   100   101    1
    85    98    97    1
    86    81    82    2
    87    97    96    1
    88    96    93    1
    89    93    94    1
    90    93    92    1
    91    94    95    2
    92    90    89    1
    93    85    86    1
    94    89    86    1
    95    89    91    1
    96    86    87    1
    97    87    88    2
