@<TRIPOS>MOLECULE
tmp/1fl7C00.pdb
 80 77 0 0 0
SMALL
GASTEIGER

@<TRIPOS>ATOM
      1  N          6.3970   65.3030   22.3850 N.3     8  LEU8       -0.1245
      2  CA         6.7220   66.6750   22.7140 C.3     8  LEU8        0.1561
      3  C          6.1990   66.9330   24.1220 C.2     8  LEU8        0.2260
      4  O          5.0960   66.5100   24.4730 O.2     8  LEU8       -0.2867
      5  CB         6.0390   67.6370   21.7400 C.3     8  LEU8        0.0270
      6  CG         6.5880   67.8320   20.3270 C.3     8  LEU8        0.0019
      7  CD1        5.6370   68.7140   19.6000 C.3     8  LEU8        0.0001
      8  CD2        7.9670   68.4720   20.3270 C.3     8  LEU8        0.0001
      9  N          2.3020   81.2190   27.8560 N.3    18  GLY18      -0.1210
     10  CA         2.1450   81.8230   26.5440 C.3    18  GLY18       0.1956
     11  C          3.4280   81.8620   25.7360 C.2    18  GLY18       0.2612
     12  O          3.5330   82.5980   24.7520 O.2    18  GLY18      -0.2717
     13  N          4.4070   81.0650   26.1480 N.am   19  ALA19      -0.1966
     14  CA         5.6880   81.0130   25.4630 C.3    19  ALA19       0.1713
     15  C          6.4550   79.7620   25.8470 C.2    19  ALA19       0.2458
     16  O          7.5500   79.8380   26.4160 O.2    19  ALA19      -0.2730
     17  CB         6.5130   82.2480   25.7910 C.3    19  ALA19       0.0333
     18  N          5.8990   78.5900   25.5160 N.am   20  PRO20      -0.2716
     19  CA         6.4830   77.2790   25.8010 C.3    20  PRO20       0.1536
     20  C          7.7610   76.9940   25.0190 C.2    20  PRO20       0.2598
     21  O          8.0480   77.6380   24.0220 O.2    20  PRO20      -0.2715
     22  CB         5.3840   76.3060   25.3670 C.3    20  PRO20       0.0310
     23  CG         4.1590   77.1410   25.2530 C.3    20  PRO20       0.0237
     24  CD         4.6580   78.4330   24.7470 C.3    20  PRO20       0.0939
     25  N          8.5410   76.0380   25.4920 N.am   21  ILE21      -0.1964
     26  CA         9.7090   75.6080   24.7510 C.3    21  ILE21       0.1727
     27  C          9.4900   74.1110   24.7550 C.2    21  ILE21       0.2616
     28  O          9.7220   73.4570   25.7710 O.2    21  ILE21      -0.2715
     29  CB        11.0310   75.8940   25.4500 C.3    21  ILE21       0.0290
     30  CG1       11.3840   77.3730   25.3440 C.3    21  ILE21       0.0022
     31  CG2       12.1210   75.0440   24.8140 C.3    21  ILE21       0.0023
     32  CD1       11.5070   77.8590   23.9420 C.3    21  ILE21       0.0001
     33  N          9.0010   73.5770   23.6420 N.am   22  LEU22      -0.1977
     34  CA         8.7450   72.1500   23.5480 C.3    22  LEU22       0.1596
     35  C         10.0510   71.3840   23.4090 C.2    22  LEU22       0.2287
     36  O         11.0000   71.8680   22.7990 O.2    22  LEU22      -0.2864
     37  CB         7.8280   71.8620   22.3660 C.3    22  LEU22       0.0297
     38  CG         6.5040   72.6200   22.4110 C.3    22  LEU22       0.0022
     39  CD1        5.6170   72.1550   21.2810 C.3    22  LEU22       0.0001
     40  CD2        5.8280   72.3700   23.7310 C.3    22  LEU22       0.0001
     41  N         12.8900   74.8670   15.7920 N.3    62  ASN62      -0.1240
     42  CA        13.2510   76.2580   15.5410 C.3    62  ASN62       0.1653
     43  C         14.2400   76.7590   16.5810 C.2    62  ASN62       0.2266
     44  O         14.1830   76.3670   17.7370 O.2    62  ASN62      -0.2867
     45  CB        12.0120   77.1390   15.6090 C.3    62  ASN62       0.1155
     46  CG        10.8830   76.6110   14.7670 C.2    62  ASN62       0.2627
     47  OD1        9.7430   76.5080   15.2300 O.2    62  ASN62      -0.2716
     48  ND2       11.1860   76.2720   13.5180 N.am   62  ASN62      -0.0877
     49  N         15.6880   79.6220   19.0220 N.3    64  VAL64      -0.1245
     50  CA        15.0120   80.6750   19.7710 C.3    64  VAL64       0.1561
     51  C         15.9860   81.2620   20.7810 C.2    64  VAL64       0.2260
     52  O         16.8260   80.5490   21.3400 O.2    64  VAL64      -0.2867
     53  CB        13.7570   80.1490   20.4940 C.3    64  VAL64       0.0252
     54  CG1       13.3350   81.1200   21.5680 C.3    64  VAL64       0.0019
     55  CG2       12.6200   79.9820   19.4990 C.3    64  VAL64       0.0019
     56  N         13.5610   74.7270   19.9040 N.3    74  ASN74      -0.1225
     57  CA        12.1770   74.5530   20.3030 C.3    74  ASN74       0.1785
     58  C         11.6070   73.4900   19.3780 C.2    74  ASN74       0.2597
     59  O         11.1910   73.7840   18.2710 O.2    74  ASN74      -0.2718
     60  CB        11.4500   75.8860   20.1330 C.3    74  ASN74       0.1169
     61  CG        10.0360   75.8570   20.6590 C.2    74  ASN74       0.2627
     62  OD1        9.7180   75.0910   21.5680 O.2    74  ASN74      -0.2716
     63  ND2        9.1870   76.7120   20.1000 N.am   74  ASN74      -0.0877
     64  N         11.5990   72.2480   19.8320 N.am   75  HIS75      -0.1961
     65  CA        11.1190   71.1440   19.0140 C.3    75  HIS75       0.1787
     66  C          9.7000   71.2900   18.5240 C.2    75  HIS75       0.2620
     67  O          8.8760   71.9370   19.1660 O.2    75  HIS75      -0.2715
     68  CB        11.2950   69.8410   19.7800 C.3    75  HIS75       0.0785
     69  CG        12.6940   69.6460   20.2580 C.ar   75  HIS75       0.0821
     70  ND1       13.0370   68.7010   21.1970 N.ar   75  HIS75      -0.2267
     71  CD2       13.8300   70.3230   19.9600 C.ar   75  HIS75       0.1154
     72  CE1       14.3290   68.8080   21.4620 C.ar   75  HIS75       0.1986
     73  NE2       14.8310   69.7850   20.7240 N.ar   75  HIS75      -0.2212
     74  N          9.4270   70.6740   17.3770 N.am   76  THR76      -0.1951
     75  CA         8.1170   70.7430   16.7390 C.3    76  THR76       0.1897
     76  C          7.5370   69.3580   16.4580 C.2    76  THR76       0.2313
     77  O          6.3170   69.1800   16.3910 O.2    76  THR76      -0.2863
     78  CB         8.2340   71.5220   15.4420 C.3    76  THR76       0.1794
     79  OG1        9.1880   70.8750   14.5960 O.3    76  THR76      -0.2208
     80  CG2        8.7360   72.9250   15.7200 C.3    76  THR76       0.0378
@<TRIPOS>BOND
     1    48    46   am
     2    79    78    1
     3    46    47    2
     4    46    45    1
     5    78    80    1
     6    78    75    1
     7    42    45    1
     8    42    41    1
     9    42    43    1
    10    77    76    2
    11    76    75    1
    12    43    44    2
    13    75    74    1
    14    74    66   am
    15    59    58    2
    16    66    65    1
    17    66    67    2
    18    65    68    1
    19    65    64    1
    20    49    50    1
    21    58    64   am
    22    58    57    1
    23    55    53    1
    24     7     6    1
    25    50    53    1
    26    50    51    1
    27    68    69    1
    28    56    57    1
    29    71    69   ar
    30    71    73   ar
    31    63    61   am
    32    60    57    1
    33    60    61    1
    34    69    70   ar
    35     6     8    1
    36     6     5    1
    37    53    54    1
    38    61    62    2
    39    73    72   ar
    40    51    52    2
    41    70    72   ar
    42    39    38    1
    43     5     2    1
    44    37    38    1
    45    37    34    1
    46     1     2    1
    47    38    40    1
    48     2     3    1
    49    36    35    2
    50    35    34    1
    51    34    33    1
    52    33    27   am
    53    32    30    1
    54    21    20    2
    55     3     4    2
    56    24    23    1
    57    24    18    1
    58    26    27    1
    59    26    29    1
    60    26    25    1
    61    12    11    2
    62    27    28    2
    63    31    29    1
    64    20    25   am
    65    20    19    1
    66    23    22    1
    67    30    29    1
    68    22    19    1
    69    14    17    1
    70    14    15    1
    71    14    13    1
    72    18    19    1
    73    18    15   am
    74    11    13   am
    75    11    10    1
    76    15    16    2
    77    10     9    1
