@<TRIPOS>MOLECULE
tmp/1flcA04.pdb
 78 75 0 0 0
SMALL
GASTEIGER

@<TRIPOS>ATOM
      1  N        139.7080   57.3890   43.9370 N.3    17  LEU17      -0.1245
      2  CA       139.2040   58.0740   45.1100 C.3    17  LEU17       0.1561
      3  C        137.7140   57.9750   45.4070 C.2    17  LEU17       0.2260
      4  O        136.9420   58.7740   44.9040 O.2    17  LEU17      -0.2867
      5  CB       139.5960   59.5410   45.0210 C.3    17  LEU17       0.0270
      6  CG       139.3500   60.4510   46.2290 C.3    17  LEU17       0.0019
      7  CD1      138.2290   61.4050   45.9060 C.3    17  LEU17       0.0001
      8  CD2      139.0180   59.6350   47.4750 C.3    17  LEU17       0.0001
      9  N        134.6040   58.7620   47.4330 N.3    19  ASN19      -0.1225
     10  CA       134.2660   59.7550   48.4460 C.3    19  ASN19       0.1785
     11  C        133.1010   59.2560   49.2790 C.2    19  ASN19       0.2598
     12  O        132.2670   58.5200   48.7850 O.2    19  ASN19      -0.2718
     13  CB       133.8890   61.0480   47.7780 C.3    19  ASN19       0.1169
     14  CG       132.8520   60.8350   46.7630 C.2    19  ASN19       0.2627
     15  OD1      133.1370   60.3300   45.6760 O.2    19  ASN19      -0.2716
     16  ND2      131.6150   61.1760   47.1030 N.am   19  ASN19      -0.0877
     17  N        133.0500   59.6680   50.5440 N.am   20  GLY20      -0.1942
     18  CA       131.9940   59.2320   51.4390 C.3    20  GLY20       0.2014
     19  C        131.5240   60.3360   52.3560 C.2    20  GLY20       0.2639
     20  O        132.0410   61.4630   52.3390 O.2    20  GLY20      -0.2714
     21  N        130.5290   60.0080   53.1700 N.am   21  PHE21      -0.1959
     22  CA       129.9650   60.9820   54.1030 C.3    21  PHE21       0.1771
     23  C        130.7880   61.0470   55.3720 C.2    21  PHE21       0.2620
     24  O        130.6780   60.1830   56.2480 O.2    21  PHE21      -0.2715
     25  CB       128.5270   60.6120   54.4650 C.3    21  PHE21       0.0574
     26  CG       127.4940   61.1400   53.4960 C.ar   21  PHE21      -0.0200
     27  CD1      127.3050   62.5160   53.3280 C.ar   21  PHE21      -0.0042
     28  CD2      126.7070   60.2590   52.7610 C.ar   21  PHE21      -0.0042
     29  CE1      126.3470   63.0030   52.4430 C.ar   21  PHE21      -0.0003
     30  CE2      125.7520   60.7370   51.8770 C.ar   21  PHE21      -0.0003
     31  CZ       125.5710   62.1120   51.7180 C.ar   21  PHE21      -0.0000
     32  N        131.6190   62.0770   55.4630 N.am   22  GLY22      -0.1940
     33  CA       132.4560   62.2470   56.6330 C.3    22  GLY22       0.2014
     34  C        133.8290   61.6560   56.4390 C.2    22  GLY22       0.2639
     35  O        134.3420   60.9930   57.3490 O.2    22  GLY22      -0.2714
     36  N        134.4160   61.8940   55.2630 N.am   23  GLY23      -0.1939
     37  CA       135.7420   61.3710   54.9800 C.3    23  GLY23       0.2014
     38  C        135.7510   60.4460   53.7880 C.2    23  GLY23       0.2638
     39  O        134.8270   59.6560   53.6160 O.2    23  GLY23      -0.2714
     40  N        136.8090   60.5270   52.9880 N.am   24  ASN24      -0.1972
     41  CA       136.9160   59.7300   51.7830 C.3    24  ASN24       0.1688
     42  C        137.9330   58.6200   51.9000 C.2    24  ASN24       0.2292
     43  O        138.4850   58.3880   52.9820 O.2    24  ASN24      -0.2864
     44  CB       137.2250   60.6590   50.6140 C.3    24  ASN24       0.1181
     45  CG       136.2820   61.8680   50.5820 C.2    24  ASN24       0.2629
     46  OD1      135.2670   61.8890   51.2840 O.2    24  ASN24      -0.2716
     47  ND2      136.6140   62.8760   49.7770 N.am   24  ASN24      -0.0877
     48  N        141.2920   59.7680   53.5300 N.3   419  THR419     -0.1203
     49  CA       141.6080   61.1480   53.1890 C.3   419  THR419      0.1994
     50  C        141.1160   61.9810   54.3560 C.2   419  THR419      0.2619
     51  O        140.1500   61.5980   55.0200 O.2   419  THR419     -0.2717
     52  CB       140.8590   61.6190   51.9570 C.3   419  THR419      0.1784
     53  OG1      141.7100   62.4720   51.1850 O.3   419  THR419     -0.2211
     54  CG2      139.6170   62.4190   52.3680 C.3   419  THR419      0.0376
     55  N        141.7490   63.1200   54.6090 N.am  420  SER420     -0.1937
     56  CA       141.3010   63.9410   55.7240 C.3   420  SER420      0.2055
     57  C        140.2560   64.9450   55.2620 C.2   420  SER420      0.2644
     58  O        139.2580   64.5820   54.6290 O.2   420  SER420     -0.2714
     59  CB       142.4930   64.6570   56.3740 C.3   420  SER420      0.2130
     60  OG       142.2070   65.0450   57.7120 O.3   420  SER420     -0.2179
     61  N        140.5020   66.2100   55.5770 N.am  421  GLY421     -0.1939
     62  CA       139.5830   67.2660   55.2070 C.3   421  GLY421      0.2014
     63  C        139.6340   67.7210   53.7610 C.2   421  GLY421      0.2639
     64  O        139.5480   66.9160   52.8300 O.2   421  GLY421     -0.2714
     65  N        139.7920   69.0270   53.5840 N.am  422  THR422     -0.1950
     66  CA       139.8100   69.6420   52.2680 C.3   422  THR422      0.1897
     67  C        141.0650   69.4330   51.4250 C.2   422  THR422      0.2313
     68  O        141.2260   68.3960   50.7810 O.2   422  THR422     -0.2863
     69  CB       139.5540   71.1540   52.3980 C.3   422  THR422      0.1794
     70  OG1      140.6920   71.7750   53.0160 O.3   422  THR422     -0.2208
     71  CG2      138.3050   71.4120   53.2520 C.3   422  THR422      0.0378
     72  N        144.7720   66.4830   50.5410 N.3   425  THR425     -0.1218
     73  CA       145.4680   65.8610   49.4220 C.3   425  THR425      0.1862
     74  C        146.3530   66.8670   48.6770 C.2   425  THR425      0.2287
     75  O        145.8660   67.7620   47.9710 O.2   425  THR425     -0.2866
     76  CB       144.4550   65.2180   48.4140 C.3   425  THR425      0.1770
     77  OG1      143.1520   65.8120   48.5540 O.3   425  THR425     -0.2211
     78  CG2      144.3430   63.7260   48.6680 C.3   425  THR425      0.0375
@<TRIPOS>BOND
     1     1     2    1
     2     4     3    2
     3     5     2    1
     4     5     6    1
     5     2     3    1
     6    15    14    2
     7     7     6    1
     8     6     8    1
     9    14    16   am
    10    14    13    1
    11     9    10    1
    12    13    10    1
    13    75    74    2
    14    76    77    1
    15    76    78    1
    16    76    73    1
    17    10    11    1
    18    74    73    1
    19    12    11    2
    20    11    17   am
    21    73    72    1
    22    47    45   am
    23    17    18    1
    24    45    44    1
    25    45    46    2
    26    44    41    1
    27    68    67    2
    28    53    52    1
    29    67    66    1
    30    18    19    1
    31    31    30   ar
    32    31    29   ar
    33    41    42    1
    34    41    40    1
    35    30    28   ar
    36    42    43    2
    37    52    54    1
    38    52    49    1
    39    66    69    1
    40    66    65    1
    41    20    19    2
    42    19    21   am
    43    69    70    1
    44    69    71    1
    45    29    27   ar
    46    28    26   ar
    47    64    63    2
    48    40    38   am
    49    21    22    1
    50    49    48    1
    51    49    50    1
    52    27    26   ar
    53    26    25    1
    54    65    63   am
    55    39    38    2
    56    63    62    1
    57    38    37    1
    58    22    25    1
    59    22    23    1
    60    50    55   am
    61    50    51    2
    62    55    56    1
    63    58    57    2
    64    37    36    1
    65    62    61    1
    66    57    61   am
    67    57    56    1
    68    36    34   am
    69    23    32   am
    70    23    24    2
    71    32    33    1
    72    56    59    1
    73    59    60    1
    74    34    33    1
    75    34    35    2
