@<TRIPOS>MOLECULE
tmp/1flgB00.pdb
 197 189 0 0 0
SMALL
GASTEIGER

@<TRIPOS>ATOM
      1  N         -7.9590   44.3310   22.2170 N.3    61  GLU61      -0.1245
      2  CA        -8.3120   43.9300   20.8540 C.3    61  GLU61       0.1567
      3  C         -8.9250   44.9450   19.9080 C.2    61  GLU61       0.2260
      4  O         -9.0130   44.6590   18.6750 O.2    61  GLU61      -0.2867
      5  CB        -9.1120   42.6380   20.9630 C.3    61  GLU61       0.0388
      6  CG        -8.4450   41.4180   21.5850 C.3    61  GLU61       0.1160
      7  CD        -9.4270   40.2530   21.6780 C.2    61  GLU61       0.3649
      8  OE1      -10.4920   40.2020   20.9720 O.co2  61  GLU61      -0.2457
      9  OE2       -9.1830   39.3130   22.4740 O.co2  61  GLU61      -0.2457
     10  N        -15.6420   35.0060   28.9750 N.3   105  CYS105     -0.1221
     11  CA       -14.9140   33.7750   28.9560 C.3   105  CYS105      0.1808
     12  C        -13.4270   33.9350   28.7440 C.2   105  CYS105      0.2601
     13  O        -12.7050   33.0600   29.1650 O.2   105  CYS105     -0.2717
     14  CB       -15.2980   32.7760   27.8030 C.3   105  CYS105      0.0970
     15  SG       -14.9380   33.3600   26.0960 S.3   105  CYS105     -0.0800
     16  N        -13.0440   34.9080   27.9100 N.am  106  CYS106     -0.1956
     17  CA       -11.7230   34.9130   27.3500 C.3   106  CYS106      0.1843
     18  C        -10.9970   36.2400   27.4020 C.2   106  CYS106      0.2625
     19  O        -10.3280   36.6620   26.4570 O.2   106  CYS106     -0.2714
     20  CB       -12.0240   34.3660   25.9130 C.3   106  CYS106      0.0997
     21  SG       -12.9810   32.8630   25.6390 S.3   106  CYS106     -0.0797
     22  N        -11.2750   36.9710   28.5230 N.am  107  ASP107     -0.1971
     23  CA       -10.6190   38.2010   28.9620 C.3   107  ASP107      0.1709
     24  C        -11.5060   39.4280   28.7410 C.2   107  ASP107      0.2293
     25  O        -12.4080   39.5100   27.8730 O.2   107  ASP107     -0.2864
     26  CB        -9.2870   38.4060   28.2370 C.3   107  ASP107      0.1436
     27  CG        -8.2610   39.2800   28.9050 C.2   107  ASP107      0.3671
     28  OD1       -8.4330   39.6880   30.0800 O.co2 107  ASP107     -0.2456
     29  OD2       -7.2760   39.5180   28.1700 O.co2 107  ASP107     -0.2456
     30  N        -11.8670   42.0230   26.9540 N.3   109  VAL109     -0.1245
     31  CA       -11.6960   42.7060   25.6950 C.3   109  VAL109      0.1561
     32  C        -12.9800   43.2060   25.0640 C.2   109  VAL109      0.2260
     33  O        -14.1340   42.8870   25.3510 O.2   109  VAL109     -0.2867
     34  CB       -10.9580   41.7950   24.6930 C.3   109  VAL109      0.0252
     35  CG1       -9.5490   41.4280   25.1340 C.3   109  VAL109      0.0019
     36  CG2      -11.8470   40.5950   24.3590 C.3   109  VAL109      0.0019
     37  N        -13.8640   44.9510   20.8540 N.3   111  ARG111     -0.1197
     38  CA       -13.3120   44.8620   19.5050 C.3   111  ARG111      0.1779
     39  C        -13.5320   46.0500   18.6010 C.2   111  ARG111      0.2305
     40  O        -12.9510   46.2240   17.5460 O.2   111  ARG111     -0.2863
     41  CB       -13.8200   43.5360   18.9120 C.2   111  ARG111     -0.0007
     42  CG       -12.9610   42.3370   19.1380 C.2   111  ARG111      0.0176
     43  CD       -13.2600   40.9900   18.4640 C.3   111  ARG111      0.2464
     44  NE       -13.0350   40.0080   19.5360 N.pl3 111  ARG111     -0.0815
     45  CZ       -14.0180   39.4610   20.2340 C.cat 111  ARG111      0.5349
     46  NH1      -15.2360   39.8250   19.8910 N.pl3 111  ARG111      0.1354
     47  NH2      -13.7290   38.6020   21.2070 N.pl3 111  ARG111      0.1354
     48  N        -18.4770   41.4930   23.4530 N.3   155  THR155     -0.1218
     49  CA       -17.0880   41.7600   23.2010 C.3   155  THR155      0.1862
     50  C        -16.7530   42.2970   21.7880 C.2   155  THR155      0.2287
     51  O        -15.6600   42.8560   21.5810 O.2   155  THR155     -0.2866
     52  CB       -16.2470   40.4740   23.3740 C.3   155  THR155      0.1770
     53  OG1      -16.8230   39.4080   22.6130 O.3   155  THR155     -0.2211
     54  CG2      -16.1990   40.0860   24.8490 C.3   155  THR155      0.0375
     55  N        -22.7290   37.1570   23.6010 N.3   176  SER176     -0.1202
     56  CA       -21.6460   36.2600   23.8830 C.3   176  SER176      0.2020
     57  C        -21.8850   35.3590   25.1050 C.2   176  SER176      0.2619
     58  O        -22.6030   35.8670   25.9260 O.2   176  SER176     -0.2717
     59  CB       -20.4470   37.1990   24.0560 C.3   176  SER176      0.2103
     60  OG       -19.1890   36.6030   24.2040 O.3   176  SER176     -0.2182
     61  N        -21.2720   34.1600   25.1180 N.am  177  GLY177     -0.1942
     62  CA       -21.4060   33.2030   26.1600 C.3   177  GLY177      0.2014
     63  C        -21.7170   31.7570   25.8120 C.2   177  GLY177      0.2639
     64  O        -22.1740   30.9350   26.6440 O.2   177  GLY177     -0.2714
     65  N        -21.2650   31.2300   24.6670 N.am  178  ASP178     -0.1957
     66  CA       -21.4560   29.8030   24.4040 C.3   178  ASP178      0.1840
     67  C        -21.0120   28.8740   25.5440 C.2   178  ASP178      0.2621
     68  O        -21.7110   27.9230   25.9840 O.2   178  ASP178     -0.2715
     69  CB       -20.8190   29.5070   23.0670 C.3   178  ASP178      0.1450
     70  CG       -21.5740   30.2080   21.9380 C.2   178  ASP178      0.3671
     71  OD1      -22.8180   30.3430   22.0100 O.co2 178  ASP178     -0.2456
     72  OD2      -20.8890   30.6360   20.9630 O.co2 178  ASP178     -0.2456
     73  N        -19.8930   29.1960   26.2060 N.am  179  GLU179     -0.1977
     74  CA       -19.2580   28.5020   27.2810 C.3   179  GLU179      0.1602
     75  C        -20.0580   28.4790   28.5810 C.2   179  GLU179      0.2287
     76  O        -19.8370   27.6210   29.4270 O.2   179  GLU179     -0.2864
     77  CB       -17.8750   29.0370   27.6940 C.3   179  GLU179      0.0415
     78  CG       -16.7420   28.5140   26.8040 C.3   179  GLU179      0.1163
     79  CD       -17.0480   28.9720   25.4130 C.2   179  GLU179      0.3649
     80  OE1      -16.8200   30.1460   25.0070 O.co2 179  GLU179     -0.2457
     81  OE2      -17.6110   28.1530   24.6630 O.co2 179  GLU179     -0.2457
     82  N        -24.2220   31.9120   19.6980 N.3   246  ALA246     -0.1245
     83  CA       -24.0010   33.3550   19.8370 C.3   246  ALA246      0.1562
     84  C        -23.0840   34.0140   18.8040 C.2   246  ALA246      0.2260
     85  O        -21.9490   33.5740   18.5010 O.2   246  ALA246     -0.2867
     86  CB       -23.3990   33.6420   21.2290 C.3   246  ALA246      0.0290
     87  N        -20.7410   36.4960   18.3630 N.3   248  TRP248     -0.1241
     88  CA       -19.8430   37.2770   19.1750 C.3   248  TRP248      0.1605
     89  C        -18.8040   38.0550   18.3730 C.2   248  TRP248      0.2264
     90  O        -18.0230   38.7650   18.9960 O.2   248  TRP248     -0.2867
     91  CB       -19.2160   36.5050   20.3360 C.3   248  TRP248      0.0550
     92  CG       -18.5130   35.2330   19.9810 C.ar  248  TRP248      0.0003
     93  CD1      -19.0790   33.9950   19.8880 C.ar  248  TRP248      0.0946
     94  CD2      -17.1160   35.1020   19.6730 C.ar  248  TRP248      0.0152
     95  NE1      -18.0880   33.1020   19.5650 N.ar  248  TRP248     -0.2442
     96  CE2      -16.8760   33.7220   19.3900 C.ar  248  TRP248      0.0810
     97  CE3      -16.0360   35.9900   19.6110 C.ar  248  TRP248      0.0012
     98  CZ2      -15.6260   33.2300   19.0740 C.ar  248  TRP248      0.0191
     99  CZ3      -14.7830   35.4720   19.2760 C.ar  248  TRP248      0.0001
    100  CH2      -14.5570   34.1130   19.0080 C.ar  248  TRP248      0.0015
    101  N        -20.3600   28.3690   18.4010 N.3   266  ASN266     -0.1240
    102  CA       -20.4520   26.9790   18.7670 C.3   266  ASN266      0.1653
    103  C        -21.6770   26.7330   19.6260 C.2   266  ASN266      0.2266
    104  O        -22.1130   27.5660   20.3980 O.2   266  ASN266     -0.2867
    105  CB       -19.2140   26.4740   19.5330 C.3   266  ASN266      0.1155
    106  CG       -18.9750   27.1900   20.8820 C.2   266  ASN266      0.2627
    107  OD1      -18.6050   28.3670   20.7470 O.2   266  ASN266     -0.2716
    108  ND2      -19.1930   26.6050   22.0490 N.am  266  ASN266     -0.0877
    109  N        -15.6190   22.6070   19.8870 N.3   316  ASP316     -0.1239
    110  CA       -15.6390   24.0570   20.0630 C.3   316  ASP316      0.1674
    111  C        -14.8520   24.7690   18.9630 C.2   316  ASP316      0.2266
    112  O        -14.1420   25.7750   19.0470 O.2   316  ASP316     -0.2867
    113  CB       -15.2490   24.4300   21.4910 C.3   316  ASP316      0.1410
    114  CG       -15.1740   25.9390   21.7300 C.2   316  ASP316      0.3668
    115  OD1      -16.1590   26.5980   21.3480 O.co2 316  ASP316     -0.2456
    116  OD2      -14.1420   26.4020   22.2760 O.co2 316  ASP316     -0.2456
    117  N        -15.9180   27.1500   17.1220 N.3   318  SER318     -0.1273
    118  CA       -16.8390   28.2640   17.0230 C.3   318  SER318      0.1575
    119  C        -16.8490   28.7840   15.5950 C.3   318  SER318      0.2036
    120  O        -15.7430   29.0930   15.2070 O.3   318  SER318     -0.2187
    121  CB       -16.4320   29.3250   18.0350 C.3   318  SER318      0.2036
    122  OG       -17.5180   30.2000   18.2430 O.3   318  SER318     -0.2187
    123  N        -12.2650   28.2940   12.3080 N.3   344  ARG344     -0.1245
    124  CA       -11.5500   27.6870   13.4520 C.3   344  ARG344      0.1563
    125  C        -11.1430   26.2360   13.1610 C.2   344  ARG344      0.2260
    126  O        -10.0680   25.7930   13.5500 O.2   344  ARG344     -0.2867
    127  CB       -12.4190   27.7170   14.6900 C.3   344  ARG344      0.0307
    128  CG       -12.6050   29.1050   15.2240 C.3   344  ARG344      0.0489
    129  CD       -11.7330   29.4910   16.4250 C.3   344  ARG344      0.2205
    130  NE       -12.1700   28.9810   17.6800 N.pl3 344  ARG344     -0.0865
    131  CZ       -12.8010   29.4190   18.7310 C.cat 344  ARG344      0.5346
    132  NH1      -13.2030   30.6780   18.8190 N.pl3 344  ARG344      0.1354
    133  NH2      -13.0600   28.6000   19.7610 N.pl3 344  ARG344      0.1354
    134  N         -9.2720   23.5520   20.0710 N.3   408  PHE408     -0.1227
    135  CA       -10.3880   24.4870   20.1940 C.3   408  PHE408      0.1736
    136  C         -9.9500   25.9070   19.8600 C.2   408  PHE408      0.2595
    137  O        -10.5950   26.5310   19.0000 O.2   408  PHE408     -0.2718
    138  CB       -11.0730   24.5010   21.5250 C.3   408  PHE408      0.0547
    139  CG       -10.2500   24.8890   22.7350 C.ar  408  PHE408     -0.0202
    140  CD1       -9.3810   23.9970   23.3530 C.ar  408  PHE408     -0.0042
    141  CD2      -10.3540   26.1850   23.2720 C.ar  408  PHE408     -0.0042
    142  CE1       -8.6490   24.4020   24.4570 C.ar  408  PHE408     -0.0003
    143  CE2       -9.6280   26.5470   24.3680 C.ar  408  PHE408     -0.0003
    144  CZ        -8.7530   25.6680   24.9940 C.ar  408  PHE408     -0.0000
    145  N         -8.7350   26.3710   20.2010 N.am  409  LEU409     -0.1980
    146  CA        -8.3250   27.7150   19.8120 C.3   409  LEU409      0.1596
    147  C         -8.2340   27.9170   18.3140 C.2   409  LEU409      0.2287
    148  O         -8.2750   29.0490   17.8240 O.2   409  LEU409     -0.2864
    149  CB        -7.1510   28.1900   20.6760 C.3   409  LEU409      0.0297
    150  CG        -7.5760   28.6080   22.1060 C.3   409  LEU409      0.0022
    151  CD1       -6.4950   29.4800   22.7010 C.3   409  LEU409      0.0001
    152  CD2       -8.8620   29.4090   22.2160 C.3   409  LEU409      0.0001
    153  N         -8.4860   32.3340   14.8500 N.3   413  ASN413     -0.1225
    154  CA        -9.5310   32.6100   15.8560 C.3   413  ASN413      0.1785
    155  C        -10.2330   33.8530   15.3780 C.2   413  ASN413      0.2597
    156  O        -10.1690   34.0020   14.1490 O.2   413  ASN413     -0.2718
    157  CB        -8.8760   32.6660   17.2390 C.3   413  ASN413      0.1169
    158  CG        -9.9600   32.7080   18.2970 C.2   413  ASN413      0.2627
    159  OD1      -10.5410   33.7640   18.5170 O.2   413  ASN413     -0.2716
    160  ND2      -10.2830   31.6140   18.9980 N.am  413  ASN413     -0.0877
    161  N        -10.7960   34.7440   16.1350 N.am  414  TRP414     -0.1976
    162  CA       -11.4000   35.9830   15.7080 C.3   414  TRP414      0.1640
    163  C        -10.3820   36.8850   14.9650 C.2   414  TRP414      0.2290
    164  O        -10.8210   37.5510   14.0280 O.2   414  TRP414     -0.2864
    165  CB       -12.0080   36.7080   16.9230 C.3   414  TRP414      0.0576
    166  CG       -10.8830   37.3460   17.7350 C.ar  414  TRP414      0.0006
    167  CD1      -10.1370   36.7500   18.7430 C.ar  414  TRP414      0.0946
    168  CD2      -10.3600   38.6790   17.5540 C.ar  414  TRP414      0.0152
    169  NE1       -9.2200   37.6540   19.1710 N.ar  414  TRP414     -0.2442
    170  CE2       -9.3130   38.8230   18.4730 C.ar  414  TRP414      0.0810
    171  CE3      -10.6850   39.7280   16.7150 C.ar  414  TRP414      0.0012
    172  CZ2       -8.5680   39.9930   18.5710 C.ar  414  TRP414      0.0191
    173  CZ3       -9.9500   40.9100   16.8280 C.ar  414  TRP414      0.0001
    174  CH2       -8.9060   41.0420   17.7470 C.ar  414  TRP414      0.0015
    175  N         -2.0340   36.7200   16.8760 N.3   489  TRP489     -0.1298
    176  CA        -3.3470   37.1500   17.3880 C.3   489  TRP489      0.1291
    177  C         -3.7110   38.5040   16.9670 C.3   489  TRP489      0.2013
    178  O         -4.4260   39.0410   17.7600 O.3   489  TRP489     -0.2188
    179  CB        -3.3470   36.7500   18.8570 C.3   489  TRP489      0.0497
    180  CG        -4.5780   36.2030   19.4790 C.ar  489  TRP489     -0.0001
    181  CD1       -5.4890   36.9420   20.1330 C.ar  489  TRP489      0.0946
    182  CD2       -5.0390   34.8500   19.5300 C.ar  489  TRP489      0.0152
    183  NE1       -6.5070   36.1610   20.5950 N.ar  489  TRP489     -0.2442
    184  CE2       -6.2550   34.8470   20.2310 C.ar  489  TRP489      0.0810
    185  CE3       -4.5690   33.6170   19.0610 C.ar  489  TRP489      0.0012
    186  CZ2       -7.0070   33.6820   20.4960 C.ar  489  TRP489      0.0191
    187  CZ3       -5.2890   32.4580   19.3010 C.ar  489  TRP489      0.0001
    188  CH2       -6.5070   32.4970   20.0120 C.ar  489  TRP489      0.0015
    189  N         -6.3300   38.3550   25.6510 N.3   552  GLY552     -0.1210
    190  CA        -7.1740   37.3810   25.0170 C.3   552  GLY552      0.1956
    191  C         -7.0220   36.0030   25.7000 C.2   552  GLY552      0.2611
    192  O         -6.5550   35.8410   26.8200 O.2   552  GLY552     -0.2717
    193  N         -7.5170   34.9740   24.9830 N.am  553  ALA553     -0.1979
    194  CA        -7.5890   33.6180   25.4120 C.3   553  ALA553      0.1597
    195  C         -6.2960   32.8900   25.6380 C.2   553  ALA553      0.2287
    196  O         -6.3220   31.9810   26.5090 O.2   553  ALA553     -0.2864
    197  CB        -8.2930   32.7430   24.3480 C.3   553  ALA553      0.0319
@<TRIPOS>BOND
     1   123   124    1
     2   125   124    1
     3   125   126    2
     4   124   127    1
     5   164   163    2
     6   156   155    2
     7   127   128    1
     8   153   154    1
     9   163   162    1
    10   120   119    1
    11   128   129    1
    12   155   154    1
    13   155   161   am
    14   119   118    1
    15   162   161    1
    16   162   165    1
    17   154   157    1
    18   129   130    1
    19   171   173   ar
    20   171   168   ar
    21   173   174   ar
    22   175   176    1
    23   165   166    1
    24   177   176    1
    25   177   178    1
    26   118   117    1
    27   118   121    1
    28   157   158    1
    29   176   179    1
    30    40    39    2
    31   168   166   ar
    32   168   170   ar
    33   130   131    2
    34   166   167   ar
    35   174   172   ar
    36   148   147    2
    37   121   122    1
    38   158   159    2
    39   158   160   am
    40   147   146    1
    41    87    88    1
    42    89    90    2
    43    89    88    1
    44   101   102    1
    45    43    42    1
    46    43    44    1
    47   170   172   ar
    48   170   169   ar
    49    85    84    2
    50    39    38    1
    51     4     3    2
    52   131   132    1
    53   131   133    1
    54   167   169   ar
    55   102   105    1
    56   102   103    1
    57    84    83    1
    58   179   180    1
    59    41    42    2
    60    41    38    1
    61   111   112    2
    62   111   110    1
    63   137   136    2
    64   100    98   ar
    65   100    99   ar
    66   185   187   ar
    67   185   182   ar
    68    98    96   ar
    69    88    91    1
    70    99    97   ar
    71   187   188   ar
    72    96    95   ar
    73    96    94   ar
    74   180   182   ar
    75   180   181   ar
    76    38    37    1
    77   182   184   ar
    78   105   106    1
    79    44    45    2
    80    95    93   ar
    81    97    94   ar
    82   103   104    2
    83    94    92   ar
    84    82    83    1
    85   146   145    1
    86   146   149    1
    87    83    86    1
    88   136   135    1
    89   136   145   am
    90   109   110    1
    91    93    92   ar
    92    46    45    1
    93     3     2    1
    94    92    91    1
    95   188   186   ar
    96   110   113    1
    97   134   135    1
    98   181   183   ar
    99   135   138    1
   100   184   186   ar
   101   184   183   ar
   102    45    47    1
   103   149   150    1
   104   107   106    2
   105     2     5    1
   106     2     1    1
   107   106   108   am
   108    72    70   ar
   109     5     6    1
   110     8     7   ar
   111   115   114   ar
   112   113   114    1
   113   138   139    1
   114    51    50    2
   115     6     7    1
   116     7     9   ar
   117   114   116   ar
   118    50    49    1
   119    70    71   ar
   120    70    69    1
   121   150   152    1
   122   150   151    1
   123    53    52    1
   124   139   141   ar
   125   139   140   ar
   126    69    66    1
   127    49    52    1
   128    49    48    1
   129   141   143   ar
   130   140   142   ar
   131    52    54    1
   132    55    56    1
   133    56    59    1
   134    56    57    1
   135    59    60    1
   136   197   194    1
   137    36    34    1
   138   143   144   ar
   139    66    65    1
   140    66    67    1
   141   142   144   ar
   142    81    79   ar
   143    65    63   am
   144    34    35    1
   145    34    31    1
   146   193   194    1
   147   193   191   am
   148    80    79   ar
   149   190   189    1
   150   190   191    1
   151    32    33    2
   152    32    31    1
   153    57    61   am
   154    57    58    2
   155    61    62    1
   156   194   195    1
   157    79    78    1
   158    67    68    2
   159    67    73   am
   160   195   196    2
   161    21    20    1
   162    21    15    1
   163    31    30    1
   164   191   192    2
   165    63    62    1
   166    63    64    2
   167    20    17    1
   168    15    14    1
   169    73    74    1
   170    19    18    2
   171    78    77    1
   172    74    77    1
   173    74    75    1
   174    17    18    1
   175    17    16    1
   176    18    22   am
   177    14    11    1
   178    25    24    2
   179    16    12   am
   180    29    27   ar
   181    26    27    1
   182    26    23    1
   183    22    23    1
   184    75    76    2
   185    24    23    1
   186    12    11    1
   187    12    13    2
   188    27    28   ar
   189    11    10    1
