@<TRIPOS>MOLECULE
tmp/1flzA00.pdb
 95 93 0 0 0
SMALL
GASTEIGER

@<TRIPOS>ATOM
      1  N         58.3820   23.2630   32.1430 N.3    62  GLN62      -0.1231
      2  CA        59.6520   23.7030   31.6010 C.3    62  GLN62       0.1698
      3  C         60.0100   25.1990   31.6730 C.2    62  GLN62       0.2592
      4  O         61.1510   25.6060   31.6120 O.2    62  GLN62      -0.2718
      5  CB        59.7540   23.1730   30.1850 C.3    62  GLN62       0.0381
      6  CG        60.1990   24.3430   29.3000 C.3    62  GLN62       0.0905
      7  CD        61.0000   23.8040   28.1490 C.2    62  GLN62       0.2608
      8  OE1       60.6810   24.1880   27.0050 O.2    62  GLN62      -0.2717
      9  NE2       61.9810   22.9540   28.4880 N.am   62  GLN62      -0.0878
     10  N         59.0510   26.0640   31.7210 N.am   63  ASP63      -0.1960
     11  CA        59.3210   27.5010   31.8030 C.3    63  ASP63       0.1828
     12  C         58.1100   28.0110   32.5280 C.2    63  ASP63       0.2501
     13  O         57.0120   27.5740   32.1910 O.2    63  ASP63      -0.2727
     14  CB        59.5230   28.0620   30.3650 C.3    63  ASP63       0.1450
     15  CG        59.1440   29.4840   30.1460 C.2    63  ASP63       0.3671
     16  OD1       59.9060   30.3930   30.3560 O.co2  63  ASP63      -0.2456
     17  OD2       57.9520   29.5910   29.5750 O.co2  63  ASP63      -0.2456
     18  N         58.2790   28.8270   33.5540 N.am   64  PRO64      -0.2490
     19  CA        57.1240   29.2700   34.3260 C.3    64  PRO64       0.1619
     20  C         56.0090   30.0460   33.6160 C.2    64  PRO64       0.2605
     21  O         56.0000   30.2900   32.4040 O.2    64  PRO64      -0.2715
     22  CB        57.6600   30.0990   35.4930 C.3    64  PRO64       0.0570
     23  CG        59.1700   30.1540   35.3520 C.2    64  PRO64      -0.0077
     24  CD        59.5430   29.3960   34.0920 C.2    64  PRO64       0.0634
     25  N         55.0410   30.4400   34.4450 N.am   65  TYR65      -0.1974
     26  CA        53.8850   31.2320   34.0720 C.3    65  TYR65       0.1639
     27  C         54.4310   32.6210   33.7550 C.2    65  TYR65       0.2290
     28  O         55.1880   33.1660   34.5400 O.2    65  TYR65      -0.2864
     29  CB        52.9050   31.3770   35.2700 C.3    65  TYR65       0.0560
     30  CG        51.9920   30.2070   35.5820 C.ar   65  TYR65      -0.0198
     31  CD1       51.3020   29.5240   34.5790 C.ar   65  TYR65      -0.0009
     32  CD2       51.7850   29.8090   36.9030 C.ar   65  TYR65      -0.0009
     33  CE1       50.4630   28.4480   34.8710 C.ar   65  TYR65       0.0417
     34  CE2       50.9440   28.7440   37.2230 C.ar   65  TYR65       0.0417
     35  CZ        50.2790   28.0690   36.2010 C.ar   65  TYR65       0.1957
     36  OH        49.4470   27.0230   36.5090 O.3    65  TYR65      -0.2866
     37  N         53.7150   33.0710   38.6510 N.3    71  ALA71      -0.1245
     38  CA        54.9170   32.3380   39.0070 C.3    71  ALA71       0.1562
     39  C         55.5320   32.5920   40.3740 C.2    71  ALA71       0.2260
     40  O         55.8690   33.7190   40.7420 O.2    71  ALA71      -0.2867
     41  CB        55.9520   32.3350   37.8920 C.3    71  ALA71       0.0290
     42  N         56.8760   26.9990   41.7240 N.3    74  LEU74      -0.1231
     43  CA        56.3830   25.6360   41.8380 C.3    74  LEU74       0.1693
     44  C         55.7580   25.2010   40.5230 C.2    74  LEU74       0.2592
     45  O         54.6330   25.5750   40.1980 O.2    74  LEU74      -0.2718
     46  CB        55.4170   25.3940   43.0020 C.3    74  LEU74       0.0284
     47  CG        56.1170   25.3140   44.3500 C.3    74  LEU74       0.0019
     48  CD1       55.2100   24.6330   45.3670 C.3    74  LEU74       0.0001
     49  CD2       57.4290   24.5540   44.2110 C.3    74  LEU74       0.0001
     50  N         56.5020   24.4180   39.7530 N.am   75  ALA75      -0.1966
     51  CA        56.0220   23.9620   38.4650 C.3    75  ALA75       0.1728
     52  C         54.5060   23.7760   38.3790 C.2    75  ALA75       0.2616
     53  O         53.9810   22.7000   38.6550 O.2    75  ALA75      -0.2715
     54  CB        56.8140   22.7800   37.9370 C.3    75  ALA75       0.0334
     55  N         53.8300   24.8680   37.9940 N.am   76  PHE76      -0.1960
     56  CA        52.3850   24.9780   37.7950 C.3    76  PHE76       0.1771
     57  C         51.5600   25.5950   38.9350 C.2    76  PHE76       0.2620
     58  O         50.3790   25.8740   38.7440 O.2    76  PHE76      -0.2715
     59  CB        51.6740   23.7500   37.1610 C.3    76  PHE76       0.0574
     60  CG        52.2700   23.1410   35.8980 C.ar   76  PHE76      -0.0200
     61  CD1       53.3190   22.2240   35.9850 C.ar   76  PHE76      -0.0042
     62  CD2       51.7550   23.4130   34.6300 C.ar   76  PHE76      -0.0042
     63  CE1       53.8670   21.6240   34.8520 C.ar   76  PHE76      -0.0003
     64  CE2       52.2900   22.8270   33.4800 C.ar   76  PHE76      -0.0003
     65  CZ        53.3540   21.9320   33.5920 C.ar   76  PHE76      -0.0000
     66  N         52.1500   25.8150   40.1140 N.am   77  SER77      -0.1950
     67  CA        51.4220   26.3840   41.2510 C.3    77  SER77       0.1924
     68  C         51.3680   27.9130   41.2910 C.2    77  SER77       0.2314
     69  O         52.1830   28.6070   40.6760 O.2    77  SER77      -0.2863
     70  CB        51.9630   25.8540   42.5730 C.3    77  SER77       0.2116
     71  OG        51.5880   26.7070   43.6410 O.3    77  SER77      -0.2180
     72  N         46.4670   25.9050   32.5270 N.3    87  SER87      -0.1217
     73  CA        47.2180   24.7100   32.8440 C.3    87  SER87       0.1889
     74  C         46.7270   23.9470   34.0540 C.2    87  SER87       0.2288
     75  O         46.4660   22.7470   33.9780 O.2    87  SER87      -0.2866
     76  CB        48.7200   24.9350   32.8520 C.3    87  SER87       0.2089
     77  OG        49.1420   25.2630   31.5400 O.3    87  SER87      -0.2183
     78  N         60.3150   22.5300   36.4320 N.3   122  ASN122     -0.1240
     79  CA        60.3930   23.0670   35.1050 C.3   122  ASN122      0.1653
     80  C         61.8450   23.0540   34.6760 C.2   122  ASN122      0.2266
     81  O         62.7460   23.0610   35.5160 O.2   122  ASN122     -0.2867
     82  CB        59.7730   24.4730   35.0070 C.3   122  ASN122      0.1155
     83  CG        58.2700   24.4220   35.1970 C.2   122  ASN122      0.2627
     84  OD1       57.5640   23.7420   34.4390 O.2   122  ASN122     -0.2716
     85  ND2       57.7930   25.1170   36.2320 N.am  122  ASN122     -0.0877
     86  N         51.9650   18.5940   26.9950 N.3   186  HIS186     -0.1241
     87  CA        51.6920   19.6870   27.9160 C.3   186  HIS186      0.1621
     88  C         50.2150   19.9330   28.1740 C.2   186  HIS186      0.2264
     89  O         49.4330   20.0510   27.2330 O.2   186  HIS186     -0.2867
     90  CB        52.4260   20.9860   27.5370 C.3   186  HIS186      0.0745
     91  CG        52.7570   21.8020   28.7410 C.ar  186  HIS186      0.0817
     92  ND1       51.9740   22.8810   29.1240 N.ar  186  HIS186     -0.2268
     93  CD2       53.7720   21.6730   29.6400 C.ar  186  HIS186      0.1154
     94  CE1       52.5220   23.3800   30.2260 C.ar  186  HIS186      0.1986
     95  NE2       53.6040   22.6790   30.5640 N.ar  186  HIS186     -0.2212
@<TRIPOS>BOND
     1    86    87    1
     2     8     7    2
     3    89    88    2
     4    90    87    1
     5    90    91    1
     6    87    88    1
     7     7     9   am
     8     7     6    1
     9    91    92   ar
    10    91    93   ar
    11    92    94   ar
    12     6     5    1
    13    17    15   ar
    14    93    95   ar
    15    15    16   ar
    16    15    14    1
    17     5     2    1
    18    94    95   ar
    19    14    11    1
    20    77    76    1
    21     2     3    1
    22     2     1    1
    23     4     3    2
    24     3    10   am
    25    10    11    1
    26    11    12    1
    27    13    12    2
    28    21    20    2
    29    72    73    1
    30    12    18   am
    31    73    76    1
    32    73    74    1
    33    64    65   ar
    34    64    62   ar
    35    18    24    1
    36    18    19    1
    37    65    63   ar
    38    20    19    1
    39    20    25   am
    40    27    26    1
    41    27    28    2
    42    75    74    2
    43    26    25    1
    44    26    29    1
    45    24    23    2
    46    19    22    1
    47    84    83    2
    48    31    33   ar
    49    31    30   ar
    50    62    60   ar
    51    80    79    1
    52    80    81    2
    53    63    61   ar
    54    33    35   ar
    55    82    79    1
    56    82    83    1
    57    79    78    1
    58    83    85   am
    59    29    30    1
    60    23    22    1
    61    30    32   ar
    62    60    61   ar
    63    60    59    1
    64    35    36    1
    65    35    34   ar
    66    32    34   ar
    67    59    56    1
    68    56    55    1
    69    56    57    1
    70    41    38    1
    71    54    51    1
    72    55    52   am
    73    52    51    1
    74    52    53    2
    75    51    50    1
    76    37    38    1
    77    58    57    2
    78    57    66   am
    79    38    39    1
    80    50    44   am
    81    66    67    1
    82    45    44    2
    83    39    40    2
    84    44    43    1
    85    69    68    2
    86    67    68    1
    87    67    70    1
    88    42    43    1
    89    43    46    1
    90    70    71    1
    91    46    47    1
    92    49    47    1
    93    47    48    1
