@<TRIPOS>MOLECULE
tmp/1fm1A00.pdb
 133 133 0 0 0
SMALL
GASTEIGER

@<TRIPOS>ATOM
      1  N          7.9600    0.2930    3.5060 N.3    74  GLY74      -0.1210
      2  CA         6.5850   -0.1400    3.9350 C.3    74  GLY74       0.1956
      3  C          5.6210   -0.0800    2.7450 C.2    74  GLY74       0.2612
      4  O          5.8730   -0.6480    1.7000 O.2    74  GLY74      -0.2717
      5  N          4.5130    0.5990    2.8980 N.am   75  LEU75      -0.1965
      6  CA         3.5320    0.6890    1.7770 C.3    75  LEU75       0.1728
      7  C          4.1240    1.5280    0.6490 C.2    75  LEU75       0.2616
      8  O          4.2320    2.7320    0.7470 O.2    75  LEU75      -0.2715
      9  CB         2.2460    1.3610    2.2740 C.3    75  LEU75       0.0311
     10  CG         1.4090    0.3670    3.0980 C.3    75  LEU75       0.0022
     11  CD1        0.4100    1.1440    3.9600 C.3    75  LEU75       0.0001
     12  CD2        0.6340   -0.5860    2.1680 C.3    75  LEU75       0.0001
     13  N          4.4940    0.9090   -0.4300 N.am   76  LEU76      -0.1963
     14  CA         5.0700    1.6850   -1.5580 C.3    76  LEU76       0.1728
     15  C          3.9180    2.3290   -2.3330 C.2    76  LEU76       0.2616
     16  O          4.1010    3.2580   -3.0970 O.2    76  LEU76      -0.2715
     17  CB         5.8360    0.7280   -2.4720 C.3    76  LEU76       0.0311
     18  CG         6.7830   -0.1380   -1.6320 C.3    76  LEU76       0.0022
     19  CD1        7.5470   -1.0960   -2.5490 C.3    76  LEU76       0.0001
     20  CD2        7.7770    0.7590   -0.8800 C.3    76  LEU76       0.0001
     21  N          2.7250    1.8430   -2.1130 N.am   77  ALA77      -0.1963
     22  CA         1.5310    2.4010   -2.8050 C.3    77  ALA77       0.1728
     23  C          0.2990    1.6350   -2.3240 C.2    77  ALA77       0.2616
     24  O          0.4100    0.6810   -1.5790 O.2    77  ALA77      -0.2715
     25  CB         1.6800    2.2190   -4.3210 C.3    77  ALA77       0.0334
     26  N         -0.8720    2.0300   -2.7390 N.am   78  HIS78      -0.1973
     27  CA        -2.0930    1.3010   -2.2970 C.3    78  HIS78       0.1656
     28  C         -3.2530    1.6250   -3.2450 C.2    78  HIS78       0.2291
     29  O         -3.2350    2.6160   -3.9470 O.2    78  HIS78      -0.2864
     30  CB        -2.4540    1.7120   -0.8570 C.3    78  HIS78       0.0771
     31  CG        -3.0460    3.0970   -0.8390 C.ar   78  HIS78       0.0820
     32  ND1       -4.2480    3.3830   -1.4630 N.ar   78  HIS78      -0.2267
     33  CD2       -2.6310    4.2760   -0.2660 C.ar   78  HIS78       0.1154
     34  CE1       -4.5160    4.6840   -1.2540 C.ar   78  HIS78       0.1986
     35  NE2       -3.5620    5.2770   -0.5300 N.ar   78  HIS78      -0.2212
     36  N          7.8530   -1.8020  -10.9770 N.3   109  LEU109     -0.1231
     37  CA         7.4900   -2.9970  -10.1560 C.3   109  LEU109      0.1693
     38  C          6.2290   -2.6980   -9.3300 C.2   109  LEU109      0.2591
     39  O          5.2860   -3.4640   -9.3290 O.2   109  LEU109     -0.2718
     40  CB         8.6590   -3.3390   -9.2030 C.3   109  LEU109      0.0284
     41  CG         9.5910   -4.4200   -9.7990 C.3   109  LEU109      0.0019
     42  CD1        8.9760   -5.8130   -9.6070 C.3   109  LEU109      0.0001
     43  CD2        9.8460   -4.1720  -11.2990 C.3   109  LEU109      0.0001
     44  N          6.2040   -1.6030   -8.6220 N.am  110  VAL110     -0.1980
     45  CA         5.0030   -1.2900   -7.7980 C.3   110  VAL110      0.1595
     46  C          3.8100   -1.0270   -8.7180 C.2   110  VAL110      0.2287
     47  O          2.7020   -1.4370   -8.4430 O.2   110  VAL110     -0.2864
     48  CB         5.2690   -0.0460   -6.9400 C.3   110  VAL110      0.0276
     49  CG1        3.9680    0.4060   -6.2650 C.3   110  VAL110      0.0022
     50  CG2        6.3090   -0.3790   -5.8670 C.3   110  VAL110      0.0022
     51  N          2.2090   -4.1620   -9.9280 N.3   113  HIS113     -0.1241
     52  CA         1.5410   -4.8670   -8.7990 C.3   113  HIS113      0.1621
     53  C          0.1660   -4.2590   -8.4820 C.2   113  HIS113      0.2264
     54  O         -0.8060   -4.9730   -8.3120 O.2   113  HIS113     -0.2867
     55  CB         2.4240   -4.7620   -7.5600 C.3   113  HIS113      0.0745
     56  CG         1.8050   -5.5480   -6.4440 C.ar  113  HIS113      0.0817
     57  ND1        2.0790   -6.8920   -6.2500 N.ar  113  HIS113     -0.2268
     58  CD2        0.9240   -5.1970   -5.4530 C.ar  113  HIS113      0.1154
     59  CE1        1.3780   -7.2960   -5.1770 C.ar  113  HIS113      0.1986
     60  NE2        0.6560   -6.3020   -4.6520 N.ar  113  HIS113     -0.2212
     61  N         -3.9460   -6.0340   -8.4100 N.3   117  HIS117     -0.1241
     62  CA        -5.0500   -6.0020   -7.4100 C.3   117  HIS117      0.1621
     63  C         -6.3240   -5.4740   -8.0790 C.2   117  HIS117      0.2264
     64  O         -7.4120   -5.9570   -7.8330 O.2   117  HIS117     -0.2867
     65  CB        -4.6610   -5.0870   -6.2450 C.3   117  HIS117      0.0745
     66  CG        -3.6680   -5.7900   -5.3600 C.ar  117  HIS117      0.0817
     67  ND1       -4.0460   -6.7920   -4.4810 N.ar  117  HIS117     -0.2268
     68  CD2       -2.3120   -5.6470   -5.2040 C.ar  117  HIS117      0.1154
     69  CE1       -2.9400   -7.2090   -3.8400 C.ar  117  HIS117      0.1986
     70  NE2       -1.8530   -6.5440   -4.2430 N.ar  117  HIS117     -0.2212
     71  N         -2.7350  -11.8810   -3.6760 N.3   123  HIS123     -0.1241
     72  CA        -1.2700  -12.1220   -3.5670 C.3   123  HIS123      0.1621
     73  C         -0.9630  -13.5800   -3.9090 C.2   123  HIS123      0.2264
     74  O         -1.6290  -14.4890   -3.4550 O.2   123  HIS123     -0.2867
     75  CB        -0.8130  -11.8340   -2.1370 C.3   123  HIS123      0.0745
     76  CG        -0.8920  -10.3580   -1.8550 C.ar  123  HIS123      0.0817
     77  ND1       -1.2240   -9.8710   -0.6020 N.ar  123  HIS123     -0.2268
     78  CD2       -0.6800   -9.2510   -2.6420 C.ar  123  HIS123      0.1154
     79  CE1       -1.2030   -8.5270   -0.6690 C.ar  123  HIS123      0.1986
     80  NE2       -0.8750   -8.0970   -1.8890 N.ar  123  HIS123     -0.2212
     81  N          4.4150  -11.2800  -10.0620 N.3   130  LEU130     -0.1245
     82  CA         4.3940   -9.8490   -9.6400 C.3   130  LEU130      0.1561
     83  C          3.5050   -9.6950   -8.4010 C.2   130  LEU130      0.2260
     84  O          3.6990   -8.8100   -7.5910 O.2   130  LEU130     -0.2867
     85  CB         3.8430   -8.9780  -10.7760 C.3   130  LEU130      0.0270
     86  CG         4.8510   -8.9140  -11.9330 C.3   130  LEU130      0.0019
     87  CD1        4.1780   -8.2440  -13.1380 C.3   130  LEU130      0.0001
     88  CD2        6.1060   -8.1130  -11.5120 C.3   130  LEU130      0.0001
     89  N          3.5600  -11.2020   -5.8560 N.3   132  PHE132     -0.1228
     90  CA         4.2480  -11.6980   -4.6240 C.3   132  PHE132      0.1721
     91  C          4.2430  -10.5600   -3.5690 C.2   132  PHE132      0.2437
     92  O          4.5340   -9.4270   -3.9000 O.2   132  PHE132     -0.2733
     93  CB         5.6880  -12.0930   -4.9890 C.3   132  PHE132      0.0547
     94  CG         6.2710  -13.0410   -3.9560 C.ar  132  PHE132     -0.0202
     95  CD1        5.6950  -14.3030   -3.7550 C.ar  132  PHE132     -0.0042
     96  CD2        7.4000  -12.6670   -3.2130 C.ar  132  PHE132     -0.0042
     97  CE1        6.2430  -15.1860   -2.8140 C.ar  132  PHE132     -0.0003
     98  CE2        7.9460  -13.5500   -2.2710 C.ar  132  PHE132     -0.0003
     99  CZ         7.3680  -14.8080   -2.0710 C.ar  132  PHE132     -0.0000
    100  N          3.8810  -10.8240   -2.3170 N.am  133  PRO133     -0.2718
    101  CA         3.8270   -9.7380   -1.2880 C.3   133  PRO133      0.1535
    102  C          5.1810   -9.0480   -1.0540 C.2   133  PRO133      0.2598
    103  O          5.2320   -7.9170   -0.6150 O.2   133  PRO133     -0.2715
    104  CB         3.3560  -10.4870   -0.0220 C.3   133  PRO133      0.0310
    105  CG         3.4080  -11.9950   -0.3120 C.3   133  PRO133      0.0237
    106  CD         3.5160  -12.1890   -1.8330 C.3   133  PRO133      0.0939
    107  N          6.2760   -9.7130   -1.3300 N.am  134  ILE134     -0.1964
    108  CA         7.6100   -9.0670   -1.0990 C.3   134  ILE134      0.1727
    109  C          8.1030   -8.3900   -2.3800 C.2   134  ILE134      0.2616
    110  O          7.9650   -8.9050   -3.4740 O.2   134  ILE134     -0.2715
    111  CB         8.6320  -10.1140   -0.6350 C.3   134  ILE134      0.0290
    112  CG1        8.2030  -10.6560    0.7380 C.3   134  ILE134      0.0022
    113  CG2       10.0150   -9.4560   -0.5280 C.3   134  ILE134      0.0023
    114  CD1        9.0230  -11.8990    1.0990 C.3   134  ILE134      0.0001
    115  N          8.6750   -7.2220   -2.2330 N.am  135  TYR135     -0.1960
    116  CA         9.1870   -6.4640   -3.4100 C.3   135  TYR135      0.1771
    117  C         10.4760   -7.1090   -3.9300 C.2   135  TYR135      0.2620
    118  O         11.3910   -7.3960   -3.1800 O.2   135  TYR135     -0.2715
    119  CB         9.4780   -5.0140   -2.9890 C.3   135  TYR135      0.0574
    120  CG        10.1570   -4.2770   -4.1260 C.ar  135  TYR135     -0.0198
    121  CD1       11.5430   -4.3850   -4.2970 C.ar  135  TYR135     -0.0009
    122  CD2        9.4060   -3.4910   -5.0100 C.ar  135  TYR135     -0.0009
    123  CE1       12.1730   -3.7130   -5.3520 C.ar  135  TYR135      0.0417
    124  CE2       10.0370   -2.8160   -6.0620 C.ar  135  TYR135      0.0417
    125  CZ        11.4200   -2.9300   -6.2330 C.ar  135  TYR135      0.1957
    126  OH        12.0420   -2.2790   -7.2800 O.3   135  TYR135     -0.2866
    127  N         10.5480   -7.3280   -5.2200 N.am  136  THR136     -0.1951
    128  CA        11.7690   -7.9410   -5.8280 C.3   136  THR136      0.1897
    129  C         12.0620   -7.2670   -7.1760 C.2   136  THR136      0.2313
    130  O         11.1640   -6.9720   -7.9410 O.2   136  THR136     -0.2863
    131  CB        11.5430   -9.4420   -6.0470 C.3   136  THR136      0.1794
    132  OG1       12.7160  -10.0110   -6.6080 O.3   136  THR136     -0.2208
    133  CG2       10.3640   -9.6680   -6.9980 C.3   136  THR136      0.0378
@<TRIPOS>BOND
     1    87    86    1
     2    86    88    1
     3    86    85    1
     4    43    41    1
     5    36    37    1
     6    85    82    1
     7    37    38    1
     8    37    40    1
     9    81    82    1
    10    51    52    1
    11    41    42    1
    12    41    40    1
    13    82    83    1
    14    38    39    2
    15    38    44   am
    16    52    53    1
    17    52    55    1
    18    46    47    2
    19    46    45    1
    20    44    45    1
    21    53    54    2
    22    61    62    1
    23    83    84    2
    24    63    64    2
    25    63    62    1
    26   130   129    2
    27    45    48    1
    28    55    56    1
    29    62    65    1
    30   126   125    1
    31   129   128    1
    32   133   131    1
    33    48    49    1
    34    48    50    1
    35   132   131    1
    36    56    57   ar
    37    56    58   ar
    38    57    59   ar
    39    65    66    1
    40   125   124   ar
    41   125   123   ar
    42   124   122   ar
    43   131   128    1
    44    89    90    1
    45   128   127    1
    46    58    60   ar
    47    66    68   ar
    48    66    67   ar
    49   123   121   ar
    50   127   117   am
    51    68    70   ar
    52    59    60   ar
    53   122   120   ar
    54    93    90    1
    55    93    94    1
    56    90    91    1
    57    67    69   ar
    58    25    22    1
    59   121   120   ar
    60    70    69   ar
    61   120   119    1
    62    94    95   ar
    63    94    96   ar
    64    29    28    2
    65   117   116    1
    66   117   118    2
    67    73    72    1
    68    73    74    2
    69    92    91    2
    70    95    97   ar
    71    71    72    1
    72    91   100   am
    73    72    75    1
    74   110   109    2
    75   116   119    1
    76   116   115    1
    77    28    27    1
    78    96    98   ar
    79    16    15    2
    80    97    99   ar
    81    22    23    1
    82    22    21    1
    83    26    23   am
    84    26    27    1
    85    78    80   ar
    86    78    76   ar
    87    19    18    1
    88    17    18    1
    89    17    14    1
    90   109   115   am
    91   109   108    1
    92    15    21   am
    93    15    14    1
    94    23    24    2
    95   100   106    1
    96   100   101    1
    97    27    30    1
    98    98    99   ar
    99    75    76    1
   100    80    79   ar
   101    76    77   ar
   102   106   105    1
   103    18    20    1
   104    14    13    1
   105    32    34   ar
   106    32    31   ar
   107   107   108    1
   108   107   102   am
   109   101   102    1
   110   101   104    1
   111    34    35   ar
   112   108   111    1
   113   102   103    2
   114    30    31    1
   115    31    33   ar
   116    79    77   ar
   117   111   113    1
   118   111   112    1
   119    35    33   ar
   120    13     7   am
   121   105   104    1
   122     7     8    2
   123     7     6    1
   124   112   114    1
   125     4     3    2
   126     6     9    1
   127     6     5    1
   128    12    10    1
   129     9    10    1
   130     3     5   am
   131     3     2    1
   132    10    11    1
   133     1     2    1
