@<TRIPOS>MOLECULE
tmp/1fm9A00.pdb
 133 126 0 0 0
SMALL
GASTEIGER

@<TRIPOS>ATOM
      1  N          2.1310  -10.4030   49.3560 N.3    51  PHE51      -0.1241
      2  CA         0.9650  -10.2710   50.2260 C.3    51  PHE51       0.1605
      3  C          0.7050   -8.8040   50.5490 C.2    51  PHE51       0.2264
      4  O         -0.4330   -8.3580   50.5310 O.2    51  PHE51      -0.2867
      5  CB         1.1600  -11.0560   51.5380 C.3    51  PHE51       0.0534
      6  CG         1.2930  -12.5390   51.3430 C.ar   51  PHE51      -0.0203
      7  CD1        2.5440  -13.1190   51.1140 C.ar   51  PHE51      -0.0042
      8  CD2        0.1660  -13.3530   51.3410 C.ar   51  PHE51      -0.0042
      9  CE1        2.6720  -14.4880   50.8810 C.ar   51  PHE51      -0.0003
     10  CE2        0.2850  -14.7240   51.1060 C.ar   51  PHE51      -0.0003
     11  CZ         1.5420  -15.2900   50.8750 C.ar   51  PHE51      -0.0000
     12  N         -0.8810   -6.6280   47.6700 N.3    54  VAL54      -0.1245
     13  CA        -2.3300   -6.7160   47.5510 C.3    54  VAL54       0.1561
     14  C         -2.9730   -5.6320   48.4170 C.2    54  VAL54       0.2260
     15  O         -3.8890   -4.9320   47.9820 O.2    54  VAL54      -0.2867
     16  CB        -2.8560   -8.0980   48.0050 C.3    54  VAL54       0.0252
     17  CG1       -4.3850   -8.1020   47.9990 C.3    54  VAL54       0.0019
     18  CG2       -2.3410   -9.1840   47.0760 C.3    54  VAL54       0.0019
     19  N         -5.1540   -2.0980   47.1820 N.3    58  LYS58      -0.1245
     20  CA        -6.4900   -1.7820   47.6690 C.3    58  LYS58       0.1561
     21  C         -6.5800   -0.3550   48.2020 C.2    58  LYS58       0.2260
     22  O         -7.6660    0.2200   48.2630 O.2    58  LYS58      -0.2867
     23  CB        -6.8900   -2.7570   48.7720 C.3    58  LYS58       0.0271
     24  CG        -7.0790   -4.1840   48.3110 C.3    58  LYS58       0.0035
     25  CD        -7.4400   -5.0710   49.5040 C.3    58  LYS58       0.0206
     26  CE        -7.6210   -6.5330   49.0950 C.3    58  LYS58       0.1093
     27  NZ        -8.0570   -7.3910   50.2460 N.3    58  LYS58      -0.1314
     28  N         -8.7520    1.4860   42.6220 N.3    63  PHE63      -0.1241
     29  CA        -8.3150    0.1440   42.2420 C.3    63  PHE63       0.1605
     30  C         -9.3730   -0.8760   42.6340 C.2    63  PHE63       0.2264
     31  O         -9.7870   -1.7040   41.8290 O.2    63  PHE63      -0.2867
     32  CB        -7.0050   -0.2430   42.9250 C.3    63  PHE63       0.0534
     33  CG        -6.5460   -1.6500   42.5980 C.ar   63  PHE63      -0.0203
     34  CD1       -5.9470   -1.9370   41.3730 C.ar   63  PHE63      -0.0042
     35  CD2       -6.7500   -2.6890   43.4980 C.ar   63  PHE63      -0.0042
     36  CE1       -5.5620   -3.2360   41.0540 C.ar   63  PHE63      -0.0003
     37  CE2       -6.3690   -3.9940   43.1880 C.ar   63  PHE63      -0.0003
     38  CZ        -5.7740   -4.2640   41.9610 C.ar   63  PHE63      -0.0000
     39  N        -13.2780   -7.2290   40.0830 N.3    68  LEU68      -0.1231
     40  CA       -12.3300   -8.1200   40.7400 C.3    68  LEU68       0.1693
     41  C        -11.3520   -8.8350   39.7950 C.2    68  LEU68       0.2592
     42  O        -10.1590   -8.9520   40.1040 O.2    68  LEU68      -0.2718
     43  CB       -13.0970   -9.1390   41.5900 C.3    68  LEU68       0.0284
     44  CG       -12.2880  -10.0680   42.4980 C.3    68  LEU68       0.0019
     45  CD1      -13.1740  -10.5780   43.6230 C.3    68  LEU68       0.0001
     46  CD2      -11.7250  -11.2290   41.6910 C.3    68  LEU68       0.0001
     47  N        -11.8430   -9.3190   38.6570 N.am   69  ASP69      -0.1974
     48  CA       -10.9770  -10.0110   37.7010 C.3    69  ASP69       0.1709
     49  C         -9.9500   -9.0730   37.0650 C.2    69  ASP69       0.2293
     50  O         -8.8670   -9.5040   36.6580 O.2    69  ASP69      -0.2864
     51  CB       -11.8070  -10.6780   36.6000 C.3    69  ASP69       0.1436
     52  CG       -12.5210  -11.9250   37.0860 C.2    69  ASP69       0.3671
     53  OD1      -11.8720  -12.7680   37.7430 O.co2  69  ASP69      -0.2456
     54  OD2      -13.7270  -12.0680   36.8060 O.co2  69  ASP69      -0.2456
     55  N         -8.6870   -6.5180   38.6940 N.3    71  GLN71      -0.1231
     56  CA        -7.7300   -6.3230   39.7750 C.3    71  GLN71       0.1698
     57  C         -6.6840   -7.4310   39.7040 C.2    71  GLN71       0.2592
     58  O         -5.4810   -7.1640   39.7840 O.2    71  GLN71      -0.2718
     59  CB        -8.4460   -6.3500   41.1250 C.3    71  GLN71       0.0381
     60  CG        -9.3950   -5.1900   41.3250 C.3    71  GLN71       0.0905
     61  CD       -10.0620   -5.2220   42.6780 C.2    71  GLN71       0.2608
     62  OE1       -9.4220   -5.5080   43.6840 O.2    71  GLN71      -0.2717
     63  NE2      -11.3470   -4.9150   42.7130 N.am   71  GLN71      -0.0878
     64  N         -7.1550   -8.6690   39.5410 N.am   72  VAL72      -0.1980
     65  CA        -6.2860   -9.8350   39.4230 C.3    72  VAL72       0.1595
     66  C         -5.3170   -9.6570   38.2480 C.2    72  VAL72       0.2287
     67  O         -4.1150   -9.8540   38.3860 O.2    72  VAL72      -0.2864
     68  CB        -7.1100  -11.1380   39.1800 C.3    72  VAL72       0.0276
     69  CG1       -6.1760  -12.2900   38.8210 C.3    72  VAL72       0.0022
     70  CG2       -7.9170  -11.4890   40.4200 C.3    72  VAL72       0.0022
     71  N         -2.5510   -6.8790   38.9170 N.3    75  LEU75      -0.1231
     72  CA        -1.5150   -7.2980   39.8420 C.3    75  LEU75       0.1693
     73  C         -0.6160   -8.3950   39.2830 C.2    75  LEU75       0.2591
     74  O          0.5710   -8.4460   39.6040 O.2    75  LEU75      -0.2718
     75  CB        -2.1400   -7.7190   41.1760 C.3    75  LEU75       0.0284
     76  CG        -2.5320   -6.5230   42.0590 C.3    75  LEU75       0.0019
     77  CD1       -3.3460   -6.9890   43.2570 C.3    75  LEU75       0.0001
     78  CD2       -1.2600   -5.8020   42.5250 C.3    75  LEU75       0.0001
     79  N         -1.1620   -9.2640   38.4440 N.am   76  ARG76      -0.1980
     80  CA        -0.3460  -10.3230   37.8500 C.3    76  ARG76       0.1597
     81  C          0.6000   -9.7280   36.8160 C.2    76  ARG76       0.2287
     82  O          1.7140  -10.2120   36.6200 O.2    76  ARG76      -0.2864
     83  CB        -1.2100  -11.3630   37.1440 C.3    76  ARG76       0.0334
     84  CG        -1.9980  -12.2660   38.0490 C.3    76  ARG76       0.0492
     85  CD        -2.4100  -13.4980   37.2660 C.3    76  ARG76       0.2205
     86  NE        -1.2920  -14.4290   37.1340 N.pl3  76  ARG76      -0.0865
     87  CZ        -0.9380  -15.0280   36.0010 C.cat  76  ARG76       0.5346
     88  NH1       -1.6130  -14.7930   34.8820 N.pl3  76  ARG76       0.1354
     89  NH2        0.0910  -15.8700   35.9900 N.pl3  76  ARG76       0.1354
     90  N          5.1170  -20.3240   47.7610 N.3   223  THR223     -0.1203
     91  CA         3.8080  -20.2710   47.1270 C.3   223  THR223      0.1994
     92  C          3.4740  -18.8040   46.9100 C.2   223  THR223      0.2617
     93  O          3.9120  -17.9530   47.6690 O.2   223  THR223     -0.2717
     94  CB         2.7300  -20.8930   48.0330 C.3   223  THR223      0.1784
     95  OG1        3.2260  -22.1120   48.5940 O.3   223  THR223     -0.2211
     96  CG2        1.4660  -21.1960   47.2320 C.3   223  THR223      0.0376
     97  N          2.6910  -18.5190   45.8800 N.am  224  PHE224     -0.1975
     98  CA         2.2900  -17.1540   45.5330 C.3   224  PHE224      0.1639
     99  C          3.3070  -16.5890   44.5560 C.2   224  PHE224      0.2290
    100  O          2.9500  -16.2460   43.4340 O.2   224  PHE224     -0.2864
    101  CB         2.1870  -16.2460   46.7660 C.3   224  PHE224      0.0560
    102  CG         1.3370  -15.0190   46.5470 C.ar  224  PHE224     -0.0200
    103  CD1        1.2130  -14.0560   47.5410 C.ar  224  PHE224     -0.0042
    104  CD2        0.6330  -14.8410   45.3550 C.ar  224  PHE224     -0.0042
    105  CE1        0.4010  -12.9370   47.3540 C.ar  224  PHE224     -0.0003
    106  CE2       -0.1780  -13.7280   45.1610 C.ar  224  PHE224     -0.0003
    107  CZ        -0.2950  -12.7760   46.1610 C.ar  224  PHE224     -0.0000
    108  N          2.9670  -18.8460   42.3160 N.3   227  GLU227     -0.1231
    109  CA         1.6680  -18.6770   41.6770 C.3   227  GLU227      0.1699
    110  C          1.7590  -17.5550   40.6470 C.2   227  GLU227      0.2592
    111  O          1.2270  -17.6720   39.5440 O.2   227  GLU227     -0.2718
    112  CB         0.5880  -18.3360   42.7130 C.3   227  GLU227      0.0402
    113  CG        -0.8020  -18.1450   42.1060 C.3   227  GLU227      0.1161
    114  CD        -1.8750  -17.8470   43.1430 C.2   227  GLU227      0.3649
    115  OE1       -2.0810  -18.6880   44.0420 O.co2 227  GLU227     -0.2457
    116  OE2       -2.5130  -16.7750   43.0600 O.co2 227  GLU227     -0.2457
    117  N          2.4300  -16.4670   41.0150 N.am  228  MET228     -0.1979
    118  CA         2.5990  -15.3330   40.1170 C.3   228  MET228      0.1605
    119  C          3.4440  -15.7400   38.9210 C.2   228  MET228      0.2287
    120  O          3.3080  -15.1810   37.8380 O.2   228  MET228     -0.2864
    121  CB         3.2770  -14.1620   40.8390 C.3   228  MET228      0.0413
    122  CG         2.4060  -13.4980   41.8900 C.3   228  MET228      0.0598
    123  SD         0.8890  -12.8330   41.1800 S.3   228  MET228     -0.1393
    124  CE         0.9840  -11.1400   41.6990 C.3   228  MET228      0.0692
    125  N          3.2680  -18.4030   37.1590 N.3   230  GLU230     -0.1245
    126  CA         2.6430  -19.3040   36.2000 C.3   230  GLU230      0.1567
    127  C          2.3830  -18.6150   34.8380 C.2   230  GLU230      0.2260
    128  O          1.5960  -19.1170   34.0380 O.2   230  GLU230     -0.2867
    129  CB         1.3440  -19.8970   36.7700 C.3   230  GLU230      0.0388
    130  CG         0.1680  -18.9330   36.8460 C.3   230  GLU230      0.1160
    131  CD        -1.1400  -19.6150   37.2480 C.2   230  GLU230      0.3649
    132  OE1       -1.2340  -20.1240   38.3900 O.co2 230  GLU230     -0.2457
    133  OE2       -2.0730  -19.6410   36.4130 O.co2 230  GLU230     -0.2457
@<TRIPOS>BOND
     1   128   127    2
     2   127   126    1
     3    88    87    1
     4    89    87    1
     5    87    86    2
     6   126   129    1
     7   126   125    1
     8   133   131   ar
     9    51    52    1
    10    51    48    1
    11    82    81    2
    12    50    49    2
    13   129   130    1
    14    54    52   ar
    15    81    80    1
    16   130   131    1
    17    49    48    1
    18    52    53   ar
    19    86    85    1
    20    83    80    1
    21    83    84    1
    22   131   132   ar
    23    85    84    1
    24    48    47    1
    25   120   119    2
    26    80    79    1
    27    66    67    2
    28    66    65    1
    29    79    73   am
    30    47    41   am
    31    55    56    1
    32    69    68    1
    33    71    72    1
    34   119   118    1
    35    68    65    1
    36    68    70    1
    37    73    74    2
    38    73    72    1
    39    65    64    1
    40    64    57   am
    41   111   110    2
    42    57    56    1
    43    57    58    2
    44    56    59    1
    45    41    42    2
    46    41    40    1
    47    72    75    1
    48    39    40    1
    49   118   121    1
    50   118   117    1
    51   110   117   am
    52   110   109    1
    53    40    43    1
    54   121   122    1
    55    36    34   ar
    56    36    38   ar
    57    59    60    1
    58    75    76    1
    59   123   124    1
    60   123   122    1
    61    60    61    1
    62    34    33   ar
    63    43    44    1
    64   109   108    1
    65   109   112    1
    66    46    44    1
    67    31    30    2
    68    38    37   ar
    69    76    78    1
    70    76    77    1
    71   113   112    1
    72   113   114    1
    73    29    28    1
    74    29    30    1
    75    29    32    1
    76    44    45    1
    77    33    32    1
    78    33    35   ar
    79    61    63   am
    80    61    62    2
    81   116   114   ar
    82   114   115   ar
    83    37    35   ar
    84   100    99    2
    85    99    98    1
    86   106   104   ar
    87   106   107   ar
    88   104   102   ar
    89    98    97    1
    90    98   101    1
    91    97    92   am
    92   107   105   ar
    93   102   101    1
    94   102   103   ar
    95    92    91    1
    96    92    93    2
    97    18    16    1
    98    91    90    1
    99    91    94    1
   100    19    20    1
   101    96    94    1
   102   105   103   ar
   103    13    12    1
   104    13    16    1
   105    13    14    1
   106    20    21    1
   107    20    23    1
   108    15    14    2
   109    17    16    1
   110    94    95    1
   111    21    22    2
   112    24    23    1
   113    24    25    1
   114    26    25    1
   115    26    27    1
   116     1     2    1
   117     2     3    1
   118     2     5    1
   119     4     3    2
   120    11     9   ar
   121    11    10   ar
   122     9     7   ar
   123    10     8   ar
   124     7     6   ar
   125     8     6   ar
   126     6     5    1
