@<TRIPOS>MOLECULE
tmp/1fmbA00.pdb
 97 90 0 0 0
SMALL
GASTEIGER

@<TRIPOS>ATOM
      1  N         -2.4960   11.0970    3.8980 N.3    25  ASP25      -0.1239
      2  CA        -1.5870   11.8140    3.0020 C.3    25  ASP25       0.1674
      3  C         -0.1050   11.5050    3.0930 C.2    25  ASP25       0.2266
      4  O          0.6190   11.9530    3.9920 O.2    25  ASP25      -0.2867
      5  CB        -1.8500   13.3150    3.2940 C.3    25  ASP25       0.1410
      6  CG        -1.1720   14.3050    2.3430 C.2    25  ASP25       0.3668
      7  OD1       -0.4970   13.8150    1.4030 O.co2  25  ASP25      -0.2456
      8  OD2       -1.2880   15.4850    2.6990 O.co2  25  ASP25      -0.2456
      9  N          2.1830   12.6500    1.1920 N.3    27  GLY27      -0.1210
     10  CA         2.9850   13.8260    0.9170 C.3    27  GLY27       0.1956
     11  C          3.0290   14.7900    2.0780 C.2    27  GLY27       0.2612
     12  O          3.5540   15.8780    1.9100 O.2    27  GLY27      -0.2717
     13  N          2.5280   14.5060    3.2820 N.am   28  ALA28      -0.1965
     14  CA         2.5370   15.4030    4.4260 C.3    28  ALA28       0.1728
     15  C          3.5010   14.8070    5.4380 C.2    28  ALA28       0.2616
     16  O          3.3810   13.6080    5.7740 O.2    28  ALA28      -0.2715
     17  CB         1.1140   15.5640    5.0080 C.3    28  ALA28       0.0334
     18  N          4.5420   15.5880    5.8070 N.am   29  ASP29      -0.1957
     19  CA         5.4850   15.0460    6.7930 C.3    29  ASP29       0.1840
     20  C          4.9000   14.8740    8.1840 C.2    29  ASP29       0.2622
     21  O          5.3340   13.9970    8.9280 O.2    29  ASP29      -0.2715
     22  CB         6.6890   15.9540    7.0190 C.3    29  ASP29       0.1450
     23  CG         7.5860   16.0900    5.8020 C.2    29  ASP29       0.3671
     24  OD1        7.5340   15.3020    4.8280 O.co2  29  ASP29      -0.2456
     25  OD2        8.4610   16.9990    5.8990 O.co2  29  ASP29      -0.2456
     26  N          3.8750   15.6930    8.4060 N.am   30  THR30      -0.1951
     27  CA         3.2780   15.7010    9.7240 C.3    30  THR30       0.1897
     28  C          1.7910   15.9110    9.5800 C.2    30  THR30       0.2313
     29  O          1.2200   16.1960    8.5250 O.2    30  THR30      -0.2863
     30  CB         4.0120   16.8570   10.4850 C.3    30  THR30       0.1794
     31  OG1        3.6020   16.7460   11.8530 O.3    30  THR30      -0.2208
     32  CG2        3.6060   18.2080    9.9310 C.3    30  THR30       0.0378
     33  N         -2.0360   17.4520   10.5170 N.3    32  VAL32      -0.1245
     34  CA        -2.6010   18.7570   10.8340 C.3    32  VAL32       0.1561
     35  C         -4.1180   18.7050   10.9540 C.2    32  VAL32       0.2260
     36  O         -4.8620   18.2040   10.1280 O.2    32  VAL32      -0.2867
     37  CB        -2.2890   19.6960    9.6320 C.3    32  VAL32       0.0252
     38  CG1       -2.6750   21.1530   10.0050 C.3    32  VAL32       0.0019
     39  CG2       -0.7730   19.6910    9.3750 C.3    32  VAL32       0.0019
     40  N          5.8650   26.6950   14.7060 N.3    51  THR51      -0.1203
     41  CA         6.5920   27.4970   13.7060 C.3    51  THR51       0.1994
     42  C          6.2560   27.1900   12.2360 C.2    51  THR51       0.2618
     43  O          7.1050   27.2560   11.3420 O.2    51  THR51      -0.2717
     44  CB         8.0860   27.1450   13.6680 C.3    51  THR51       0.1784
     45  OG1        8.1980   25.7110   13.4850 O.3    51  THR51      -0.2211
     46  CG2        8.7330   27.6250   14.9700 C.3    51  THR51       0.0376
     47  N          5.0400   26.8990   11.9310 N.am   52  GLY52      -0.1942
     48  CA         4.3240   26.6880   10.7340 C.3    52  GLY52       0.2014
     49  C          4.5740   25.5180    9.8340 C.2    52  GLY52       0.2639
     50  O          5.4090   24.6770   10.1510 O.2    52  GLY52      -0.2714
     51  N          3.7500   25.4850    8.7890 N.am   53  ILE53      -0.1963
     52  CA         3.9600   24.4220    7.7970 C.3    53  ILE53       0.1727
     53  C          4.0620   25.1410    6.4380 C.2    53  ILE53       0.2617
     54  O          3.5420   26.2520    6.2290 O.2    53  ILE53      -0.2715
     55  CB         2.7580   23.4370    7.7960 C.3    53  ILE53       0.0290
     56  CG1        1.5210   24.2760    7.6370 C.3    53  ILE53       0.0022
     57  CG2        2.9540   22.5590    9.0250 C.3    53  ILE53       0.0023
     58  CD1        0.2720   23.4120    7.6790 C.3    53  ILE53       0.0001
     59  N          4.7000   24.4710    5.4630 N.am   54  GLY54      -0.1940
     60  CA         4.8590   25.0340    4.1200 C.3    54  GLY54       0.2014
     61  C          4.1580   24.0800    3.1770 C.2    54  GLY54       0.2639
     62  O          4.2130   22.8660    3.3730 O.2    54  GLY54      -0.2714
     63  N          3.5270   24.6640    2.1570 N.am   55  GLY55      -0.1939
     64  CA         2.8530   23.8760    1.1510 C.3    55  GLY55       0.2014
     65  C          2.8640   24.7270   -0.1200 C.2    55  GLY55       0.2638
     66  O          3.6360   25.6880   -0.3320 O.2    55  GLY55      -0.2714
     67  N          1.9900   24.2650   -1.0040 N.am   56  VAL56      -0.1977
     68  CA         1.8650   24.8930   -2.3060 C.3    56  VAL56       0.1596
     69  C          1.9590   26.4070   -2.3670 C.2    56  VAL56       0.2287
     70  O          2.8580   26.9070   -3.0610 O.2    56  VAL56      -0.2864
     71  CB         0.5110   24.3680   -2.8610 C.3    56  VAL56       0.0276
     72  CG1       -0.2490   25.3680   -3.7100 C.3    56  VAL56       0.0022
     73  CG2        0.8790   23.1170   -3.6420 C.3    56  VAL56       0.0022
     74  N         -0.5250   19.2990   14.7280 N.3    81  LEU81      -0.1245
     75  CA        -0.5280   20.7500   14.5170 C.3    81  LEU81       0.1561
     76  C         -1.9520   21.1900   14.2190 C.2    81  LEU81       0.2260
     77  O         -2.8380   20.3640   13.8470 O.2    81  LEU81      -0.2867
     78  CB         0.3160   21.0980   13.2750 C.3    81  LEU81       0.0270
     79  CG         1.7690   20.6010   13.3820 C.3    81  LEU81       0.0019
     80  CD1        2.5560   21.0070   12.1460 C.3    81  LEU81       0.0001
     81  CD2        2.4030   21.1760   14.6420 C.3    81  LEU81       0.0001
     82  N         -6.4780   25.2570    7.3940 N.3    85  ILE85      -0.1245
     83  CA        -6.3730   24.5690    6.1230 C.3    85  ILE85       0.1561
     84  C         -7.7330   23.9320    5.8400 C.2    85  ILE85       0.2260
     85  O         -8.5390   23.8330    6.7460 O.2    85  ILE85      -0.2867
     86  CB        -5.1960   23.5940    6.0610 C.3    85  ILE85       0.0252
     87  CG1       -5.2680   22.4770    7.1110 C.3    85  ILE85       0.0019
     88  CG2       -3.9280   24.4150    6.3100 C.3    85  ILE85       0.0019
     89  CD1       -4.3870   21.2720    6.7530 C.3    85  ILE85       0.0001
     90  N         -5.5850   16.3760    7.9970 N.3    89  ILE89      -0.1245
     91  CA        -4.6180   15.4410    7.3890 C.3    89  ILE89       0.1561
     92  C         -3.8280   14.6170    8.3610 C.2    89  ILE89       0.2260
     93  O         -3.2420   15.0630    9.3470 O.2    89  ILE89      -0.2867
     94  CB        -3.6280   16.3870    6.6180 C.3    89  ILE89       0.0252
     95  CG1       -4.3640   17.1560    5.5200 C.3    89  ILE89       0.0019
     96  CG2       -2.3700   15.6730    6.0890 C.3    89  ILE89       0.0019
     97  CD1       -3.4950   18.1040    4.7490 C.3    89  ILE89       0.0001
@<TRIPOS>BOND
     1    72    71    1
     2    73    71    1
     3    70    69    2
     4    71    68    1
     5    69    68    1
     6    68    67    1
     7    67    65   am
     8    66    65    2
     9    65    64    1
    10    10     9    1
    11    10    11    1
    12    64    63    1
    13     7     6   ar
    14    12    11    2
    15    11    13   am
    16    63    61   am
    17     6     8   ar
    18     6     5    1
    19     2     3    1
    20     2     5    1
    21     2     1    1
    22     3     4    2
    23    61    62    2
    24    61    60    1
    25    13    14    1
    26    60    59    1
    27    14    17    1
    28    14    15    1
    29    97    95    1
    30    24    23   ar
    31    15    16    2
    32    15    18   am
    33    59    53   am
    34    95    94    1
    35    23    25   ar
    36    23    22    1
    37    18    19    1
    38    84    83    1
    39    84    85    2
    40    86    83    1
    41    86    88    1
    42    86    87    1
    43    96    94    1
    44    83    82    1
    45    54    53    2
    46    53    52    1
    47    94    91    1
    48    89    87    1
    49    19    22    1
    50    19    20    1
    51    91    90    1
    52    91    92    1
    53    56    58    1
    54    56    55    1
    55    55    52    1
    56    55    57    1
    57    52    51    1
    58    20    26   am
    59    20    21    2
    60    92    93    2
    61    26    27    1
    62    29    28    2
    63    51    49   am
    64    39    37    1
    65    28    27    1
    66    37    38    1
    67    37    34    1
    68    27    30    1
    69    49    50    2
    70    49    48    1
    71    32    30    1
    72    36    35    2
    73    30    31    1
    74    33    34    1
    75    48    47    1
    76    34    35    1
    77    43    42    2
    78    47    42   am
    79    80    79    1
    80    42    41    1
    81    78    79    1
    82    78    75    1
    83    79    81    1
    84    45    44    1
    85    44    41    1
    86    44    46    1
    87    41    40    1
    88    77    76    2
    89    76    75    1
    90    75    74    1
