@<TRIPOS>MOLECULE
tmp/1fmcA00.pdb
 154 146 0 0 0
SMALL
GASTEIGER

@<TRIPOS>ATOM
      1  N         47.6530   14.9060    3.9950 N.3    97  GLY97      -0.1210
      2  CA        47.1350   15.3760    2.7320 C.3    97  GLY97       0.1956
      3  C         48.1080   16.4440    2.2930 C.2    97  GLY97       0.2612
      4  O         49.2400   16.4820    2.7910 O.2    97  GLY97      -0.2717
      5  N         47.6990   17.3100    1.3720 N.am   98  GLY98      -0.1942
      6  CA        48.5940   18.3580    0.9190 C.3    98  GLY98       0.2014
      7  C         48.4270   18.7050   -0.5430 C.2    98  GLY98       0.2639
      8  O         47.3660   18.4950   -1.1180 O.2    98  GLY98      -0.2714
      9  N         49.4870   19.2200   -1.1490 N.am   99  GLY99      -0.1939
     10  CA        49.4240   19.6040   -2.5460 C.3    99  GLY99       0.2014
     11  C         49.8580   21.0470   -2.6960 C.2    99  GLY99       0.2639
     12  O         50.9220   21.3170   -3.2530 O.2    99  GLY99      -0.2714
     13  N         49.0600   21.9760   -2.1890 N.am  100  GLY100     -0.1940
     14  CA        49.4300   23.3730   -2.2910 C.3   100  GLY100      0.1998
     15  C         49.1500   24.0710   -3.6170 C.2   100  GLY100      0.2480
     16  O         48.6480   23.4780   -4.5840 O.2   100  GLY100     -0.2729
     17  N         49.5240   25.3500   -3.6950 N.am  101  PRO101     -0.2726
     18  CA        49.3460   26.2180   -4.8630 C.3   101  PRO101      0.1402
     19  C         50.1010   25.6920   -6.0640 C.2   101  PRO101      0.2269
     20  O         51.2360   25.2300   -5.9360 O.2   101  PRO101     -0.2865
     21  CB        49.9490   27.5500   -4.4080 C.3   101  PRO101      0.0296
     22  CG        50.0680   27.4230   -2.9170 C.3   101  PRO101      0.0237
     23  CD        50.3940   25.9940   -2.7020 C.3   101  PRO101      0.0939
     24  N         46.7210   12.3460   -2.6530 N.3   117  LEU117     -0.1245
     25  CA        46.8770   12.8250   -1.2890 C.3   117  LEU117      0.1561
     26  C         45.6140   13.1460   -0.4830 C.2   117  LEU117      0.2260
     27  O         45.5200   12.7760    0.6830 O.2   117  LEU117     -0.2867
     28  CB        47.7770   14.0640   -1.2930 C.3   117  LEU117      0.0270
     29  CG        49.2580   13.8880   -1.6200 C.3   117  LEU117      0.0019
     30  CD1       49.8860   15.2630   -1.7640 C.3   117  LEU117      0.0001
     31  CD2       49.9340   13.0880   -0.5280 C.3   117  LEU117      0.0001
     32  N         39.9430   21.4350    4.0890 N.3   146  SER146     -0.1202
     33  CA        40.5240   22.7720    4.0620 C.3   146  SER146      0.2020
     34  C         39.4970   23.7960    3.6200 C.2   146  SER146      0.2619
     35  O         38.5080   23.4470    2.9720 O.2   146  SER146     -0.2717
     36  CB        41.7270   22.8070    3.1000 C.3   146  SER146      0.2103
     37  OG        42.0970   24.1400    2.7800 O.3   146  SER146     -0.2182
     38  N         39.7240   25.0570    3.9760 N.am  147  MET147     -0.1965
     39  CA        38.8400   26.1320    3.5480 C.3   147  MET147      0.1736
     40  C         38.9820   26.2940    2.0160 C.2   147  MET147      0.2616
     41  O         38.1490   26.9340    1.3740 O.2   147  MET147     -0.2715
     42  CB        39.2010   27.4510    4.2350 C.3   147  MET147      0.0427
     43  CG        38.7610   27.5210    5.6780 C.3   147  MET147      0.0599
     44  SD        38.9630   29.1540    6.3420 S.3   147  MET147     -0.1393
     45  CE        37.4860   30.0080    5.6750 C.3   147  MET147      0.0692
     46  N         40.0620   25.7460    1.4530 N.am  148  ALA148     -0.1977
     47  CA        40.2930   25.8030    0.0070 C.3   148  ALA148      0.1597
     48  C         39.1120   25.1450   -0.7340 C.2   148  ALA148      0.2287
     49  O         38.7670   25.5560   -1.8420 O.2   148  ALA148     -0.2864
     50  CB        41.6040   25.1270   -0.3410 C.3   148  ALA148      0.0319
     51  N         36.9300   28.2400   -0.8510 N.3   151  ASN151     -0.1240
     52  CA        37.5260   29.4530   -1.3940 C.3   151  ASN151      0.1653
     53  C         37.7460   29.3060   -2.9040 C.2   151  ASN151      0.2266
     54  O         37.8130   28.1830   -3.4300 O.2   151  ASN151     -0.2867
     55  CB        38.8830   29.7100   -0.7540 C.3   151  ASN151      0.1155
     56  CG        38.7830   30.0190    0.6530 C.2   151  ASN151      0.2627
     57  OD1       37.7590   30.5010    1.1120 O.2   151  ASN151     -0.2716
     58  ND2       39.8490   29.7510    1.3920 N.am  151  ASN151     -0.0877
     59  N         45.1790   27.6240   -7.5140 N.3   156  MET156     -0.1245
     60  CA        44.6380   26.6760   -6.5400 C.3   156  MET156      0.1570
     61  C         43.8250   25.5450   -7.1470 C.2   156  MET156      0.2261
     62  O         43.2010   24.7800   -6.4120 O.2   156  MET156     -0.2867
     63  CB        43.7130   27.4220   -5.5640 C.3   156  MET156      0.0387
     64  CG        44.4040   28.3730   -4.5880 C.3   156  MET156      0.0595
     65  SD        45.5600   27.5400   -3.4500 S.3   156  MET156     -0.1393
     66  CE        44.6350   26.1430   -3.0440 C.3   156  MET156      0.0692
     67  N         44.7230   21.7820   -5.5940 N.3   159  TYR159     -0.1241
     68  CA        44.5040   21.7410   -4.1520 C.3   159  TYR159      0.1605
     69  C         43.0390   21.9670   -3.7810 C.2   159  TYR159      0.2264
     70  O         42.4300   21.1330   -3.1180 O.2   159  TYR159     -0.2867
     71  CB        45.3820   22.7760   -3.4400 C.3   159  TYR159      0.0534
     72  CG        45.3760   22.6320   -1.9180 C.ar  159  TYR159     -0.0201
     73  CD1       45.9440   21.5130   -1.3000 C.ar  159  TYR159     -0.0009
     74  CD2       44.7840   23.6000   -1.1040 C.ar  159  TYR159     -0.0009
     75  CE1       45.9200   21.3610    0.0860 C.ar  159  TYR159      0.0417
     76  CE2       44.7530   23.4590    0.2810 C.ar  159  TYR159      0.0417
     77  CZ        45.3200   22.3400    0.8630 C.ar  159  TYR159      0.1957
     78  OH        45.2770   22.1830    2.2240 O.3   159  TYR159     -0.2866
     79  N         40.2610   23.6300    8.2240 N.3   189  PRO189     -0.2102
     80  CA        41.0500   24.6670    8.8890 C.3   189  PRO189      0.1504
     81  C         41.3600   25.8370    7.9630 C.2   189  PRO189      0.2576
     82  O         41.3860   25.6810    6.7270 O.2   189  PRO189     -0.2718
     83  CB        42.3600   23.9380    9.2290 C.3   189  PRO189      0.0282
     84  CG        42.0530   22.4970    9.1000 C.3   189  PRO189      0.0208
     85  CD        41.0890   22.4460    7.9590 C.3   189  PRO189      0.0893
     86  N         41.5300   27.0080    8.5680 N.am  190  GLY190     -0.1943
     87  CA        41.9200   28.2030    7.8500 C.3   190  GLY190      0.2014
     88  C         43.4370   28.1770    7.9950 C.2   190  GLY190      0.2638
     89  O         44.0260   27.0940    8.0790 O.2   190  GLY190     -0.2714
     90  N         44.0740   29.3380    8.0800 N.am  191  ALA191     -0.1977
     91  CA        45.5350   29.3950    8.2110 C.3   191  ALA191      0.1597
     92  C         45.9950   28.8710    9.5710 C.2   191  ALA191      0.2287
     93  O         45.7150   29.4840   10.6010 O.2   191  ALA191     -0.2864
     94  CB        46.0350   30.8240    8.0050 C.3   191  ALA191      0.0319
     95  N         54.0860   23.6640    7.1490 N.3   196  ALA196     -0.1231
     96  CA        53.4170   23.7430    5.8510 C.3   196  ALA196      0.1694
     97  C         52.9780   25.1760    5.5360 C.2   196  ALA196      0.2591
     98  O         53.2690   25.6930    4.4630 O.2   196  ALA196     -0.2718
     99  CB        52.2280   22.8050    5.8190 C.3   196  ALA196      0.0304
    100  N         52.2980   25.8280    6.4750 N.am  197  LEU197     -0.1980
    101  CA        51.8690   27.2060    6.2510 C.3   197  LEU197      0.1596
    102  C         53.1030   28.0770    6.1240 C.2   197  LEU197      0.2287
    103  O         53.1670   28.9480    5.2650 O.2   197  LEU197     -0.2864
    104  CB        50.9960   27.7290    7.3970 C.3   197  LEU197      0.0297
    105  CG        50.5470   29.1950    7.2770 C.3   197  LEU197      0.0022
    106  CD1       49.6390   29.3710    6.0720 C.3   197  LEU197      0.0001
    107  CD2       49.8300   29.6340    8.5230 C.3   197  LEU197      0.0001
    108  N         55.8870   27.4560    4.8620 N.3   199  SER199     -0.1202
    109  CA        56.5980   27.2910    3.6020 C.3   199  SER199      0.2020
    110  C         56.0410   28.1550    2.4610 C.2   199  SER199      0.2618
    111  O         56.6830   28.3120    1.4210 O.2   199  SER199     -0.2717
    112  CB        56.5790   25.8250    3.1810 C.3   199  SER199      0.2103
    113  OG        55.2690   25.4290    2.8280 O.3   199  SER199     -0.2182
    114  N         54.8520   28.7150    2.6480 N.am  200  VAL200     -0.1979
    115  CA        54.2400   29.5330    1.6060 C.3   200  VAL200      0.1595
    116  C         53.7900   30.9240    2.1040 C.2   200  VAL200      0.2287
    117  O         53.4310   31.8010    1.3110 O.2   200  VAL200     -0.2864
    118  CB        53.0570   28.7490    0.9400 C.3   200  VAL200      0.0276
    119  CG1       51.8490   28.6870    1.8620 C.3   200  VAL200      0.0022
    120  CG2       52.7040   29.3480   -0.3980 C.3   200  VAL200      0.0022
    121  N         46.0830   38.2720    5.8290 N.3   209  MET209     -0.1245
    122  CA        45.2920   37.2200    6.4440 C.3   209  MET209      0.1570
    123  C         44.6430   37.7510    7.7150 C.2   209  MET209      0.2261
    124  O         43.4160   37.6950    7.8660 O.2   209  MET209     -0.2867
    125  CB        46.1660   36.0100    6.7640 C.3   209  MET209      0.0387
    126  CG        46.7660   35.3520    5.5380 C.3   209  MET209      0.0595
    127  SD        47.6920   33.8560    5.9220 S.3   209  MET209     -0.1393
    128  CE        47.3670   32.8380    4.4410 C.3   209  MET209      0.0692
    129  N         41.7000   33.3130    5.1380 N.3   252  GLN252     -0.1231
    130  CA        43.1250   33.5450    4.9800 C.3   252  GLN252      0.1698
    131  C         43.5460   32.9170    3.6430 C.2   252  GLN252      0.2592
    132  O         43.4520   31.6940    3.4370 O.2   252  GLN252     -0.2718
    133  CB        43.9100   32.9340    6.1610 C.3   252  GLN252      0.0381
    134  CG        43.4450   33.3670    7.5800 C.3   252  GLN252      0.0905
    135  CD        42.2210   32.5770    8.0810 C.2   252  GLN252      0.2608
    136  OE1       42.1380   31.3670    7.8840 O.2   252  GLN252     -0.2717
    137  NE2       41.2770   33.2660    8.7120 N.am  252  GLN252     -0.0878
    138  N         43.9540   33.7710    2.7160 N.am  253  GLU253     -0.1966
    139  CA        44.3570   33.3120    1.3940 C.3   253  GLU253      0.1733
    140  C         45.6990   33.8870    1.0490 C.2   253  GLU253      0.2616
    141  O         46.1640   34.8210    1.7160 O.2   253  GLU253     -0.2715
    142  CB        43.3230   33.7220    0.3420 C.3   253  GLU253      0.0429
    143  CG        41.9850   33.0320    0.5240 C.3   253  GLU253      0.1163
    144  CD        41.0040   33.3360   -0.5740 C.2   253  GLU253      0.3649
    145  OE1       40.4600   34.4630   -0.6050 O.co2 253  GLU253     -0.2457
    146  OE2       40.7660   32.4300   -1.4010 O.co2 253  GLU253     -0.2457
    147  N         46.3260   33.2970    0.0320 N.am  254  LEU254     -0.1977
    148  CA        47.6430   33.7140   -0.4510 C.3   254  LEU254      0.1596
    149  C         47.5570   34.9090   -1.4030 C.2   254  LEU254      0.2287
    150  O         48.5580   35.5830   -1.6650 O.2   254  LEU254     -0.2864
    151  CB        48.3340   32.5380   -1.1450 C.3   254  LEU254      0.0297
    152  CG        48.6060   31.3340   -0.2450 C.3   254  LEU254      0.0022
    153  CD1       49.1410   30.1780   -1.0510 C.3   254  LEU254      0.0001
    154  CD2       49.5900   31.7350    0.8260 C.3   254  LEU254      0.0001
@<TRIPOS>BOND
     1    59    60    1
     2    61    60    1
     3    61    62    2
     4    60    63    1
     5    19    20    2
     6    19    18    1
     7    67    68    1
     8    63    64    1
     9    18    21    1
    10    18    17    1
    11    64    65    1
    12    16    15    2
    13    21    22    1
    14    68    69    1
    15    68    71    1
    16    69    70    2
    17    17    15   am
    18    17    23    1
    19    15    14    1
    20    65    66    1
    21    71    72    1
    22    54    53    2
    23    12    11    2
    24    22    23    1
    25    53    52    1
    26    11    10    1
    27    11    13   am
    28    24    25    1
    29    10     9    1
    30    14    13    1
    31    72    73   ar
    32    72    74   ar
    33    49    48    2
    34    30    29    1
    35   150   149    2
    36    29    28    1
    37    29    31    1
    38   149   148    1
    39   146   144   ar
    40    52    51    1
    41    52    55    1
    42    73    75   ar
    43    28    25    1
    44    25    26    1
    45     9     7   am
    46   151   148    1
    47   151   152    1
    48     8     7    2
    49    74    76   ar
    50   153   152    1
    51    55    56    1
    52    48    47    1
    53   145   144   ar
    54   144   143    1
    55     7     6    1
    56    26    27    2
    57   148   147    1
    58   120   118    1
    59    50    47    1
    60   152   154    1
    61    47    46    1
    62   147   140   am
    63    75    77   ar
    64    76    77   ar
    65   142   143    1
    66   142   139    1
    67    56    57    2
    68    56    58   am
    69    77    78    1
    70     6     5    1
    71   118   115    1
    72   118   119    1
    73   140   139    1
    74   140   141    2
    75   117   116    2
    76     5     3   am
    77    41    40    2
    78   139   138    1
    79   111   110    2
    80    46    40   am
    81   115   116    1
    82   115   114    1
    83    40    39    1
    84     3     2    1
    85     3     4    2
    86   110   114   am
    87   110   109    1
    88   138   131   am
    89     2     1    1
    90    37    36    1
    91   113   112    1
    92    35    34    2
    93    36    33    1
    94   112   109    1
    95   132   131    2
    96    39    38    1
    97    39    42    1
    98   109   108    1
    99    34    38   am
   100    34    33    1
   101   131   130    1
   102    33    32    1
   103    42    43    1
   104   128   127    1
   105    98    97    2
   106   130   129    1
   107   130   133    1
   108   103   102    2
   109    97    96    1
   110    97   100   am
   111   126   127    1
   112   126   125    1
   113    45    44    1
   114    43    44    1
   115    99    96    1
   116   121   122    1
   117    96    95    1
   118   106   105    1
   119   102   101    1
   120   133   134    1
   121   101   100    1
   122   101   104    1
   123   122   125    1
   124   122   123    1
   125    82    81    2
   126   105   104    1
   127   105   107    1
   128   134   135    1
   129   123   124    2
   130    87    88    1
   131    87    86    1
   132   136   135    2
   133    85    79    1
   134    85    84    1
   135    81    86   am
   136    81    80    1
   137    88    89    2
   138    88    90   am
   139    94    91    1
   140    90    91    1
   141   135   137   am
   142    91    92    1
   143    79    80    1
   144    80    83    1
   145    84    83    1
   146    92    93    2
