@<TRIPOS>MOLECULE
tmp/1fmoA00.pdb
 147 138 0 0 0
SMALL
GASTEIGER

@<TRIPOS>ATOM
      1  N          8.7650   15.1980    8.0630 N.3    37  LEU37      -0.1231
      2  CA         8.3900   13.8340    8.2660 C.3    37  LEU37       0.1693
      3  C          9.5710   12.9230    7.9860 C.2    37  LEU37       0.2593
      4  O          9.6940   11.7790    8.4230 O.2    37  LEU37      -0.2718
      5  CB         7.2430   13.4530    7.3180 C.3    37  LEU37       0.0284
      6  CG         5.8420   13.6660    7.8900 C.3    37  LEU37       0.0019
      7  CD1        4.8660   13.8720    6.7320 C.3    37  LEU37       0.0001
      8  CD2        5.4570   12.4270    8.7040 C.3    37  LEU37       0.0001
      9  N         10.4800   13.3950    7.2190 N.am   38  GLY38      -0.1942
     10  CA        11.5180   12.4630    6.9340 C.3    38  GLY38       0.2014
     11  C         12.3850   12.9730    5.8370 C.2    38  GLY38       0.2640
     12  O         12.1120   13.9840    5.1990 O.2    38  GLY38      -0.2714
     13  N         13.4460   12.2450    5.6630 N.am   39  THR39      -0.1936
     14  CA        14.4480   12.6010    4.7580 C.3    39  THR39       0.2028
     15  C         14.7690   11.4950    3.8200 C.2    39  THR39       0.2642
     16  O         14.5300   10.3430    4.1610 O.2    39  THR39      -0.2714
     17  CB        15.6930   12.8500    5.6220 C.3    39  THR39       0.1808
     18  OG1       15.9030   14.2400    5.8000 O.3    39  THR39      -0.2208
     19  CG2       16.9220   12.1300    5.0650 C.3    39  THR39       0.0379
     20  N         15.3600   11.8870    2.6890 N.am   40  GLY40      -0.1954
     21  CA        15.8010   11.0050    1.6090 C.3    40  GLY40       0.1869
     22  C         17.1040   11.5440    1.0440 C.2    40  GLY40       0.2309
     23  O         17.5890   12.5450    1.5500 O.2    40  GLY40      -0.2863
     24  N         10.7310   15.5230    3.1420 N.3    45  VAL45      -0.1245
     25  CA         9.3000   15.3130    3.1310 C.3    45  VAL45       0.1561
     26  C          8.7110   15.9840    4.3860 C.2    45  VAL45       0.2260
     27  O          9.0580   15.6140    5.5080 O.2    45  VAL45      -0.2867
     28  CB         8.7760   13.8810    3.0330 C.3    45  VAL45       0.0252
     29  CG1        7.2470   13.9070    2.9730 C.3    45  VAL45       0.0019
     30  CG2        9.3100   13.1410    1.8170 C.3    45  VAL45       0.0019
     31  N          1.6140   14.9180    2.6960 N.3    58  ALA58      -0.1245
     32  CA         3.0560   14.8330    2.7680 C.3    58  ALA58       0.1562
     33  C          3.5310   15.5020    1.4880 C.2    58  ALA58       0.2260
     34  O          2.9840   15.2150    0.4200 O.2    58  ALA58      -0.2867
     35  CB         3.4950   13.3960    2.8180 C.3    58  ALA58       0.0290
     36  N          6.7070   16.4170   -0.9530 N.3    60  LYS60      -0.1245
     37  CA         8.0810   16.1880   -1.3390 C.3    60  LYS60       0.1561
     38  C          8.7180   17.4160   -1.9490 C.2    60  LYS60       0.2260
     39  O          8.2710   17.9290   -2.9710 O.2    60  LYS60      -0.2867
     40  CB         8.2180   14.9510   -2.1810 C.3    60  LYS60       0.0271
     41  CG         9.6510   14.4900   -2.3190 C.3    60  LYS60       0.0035
     42  CD         9.7110   13.1190   -2.9390 C.3    60  LYS60       0.0206
     43  CE        11.1150   12.7140   -3.3020 C.3    60  LYS60       0.1093
     44  NZ        11.1330   11.3350   -3.7380 N.3    60  LYS60      -0.1314
     45  N          1.5110    5.2020   -2.8550 N.3    92  VAL92      -0.1245
     46  CA         1.0050    6.4790   -2.4250 C.3    92  VAL92       0.1561
     47  C          0.3330    7.2250   -3.5620 C.2    92  VAL92       0.2260
     48  O          0.6410    7.0300   -4.7220 O.2    92  VAL92      -0.2867
     49  CB         2.0580    7.4060   -1.8490 C.3    92  VAL92       0.0252
     50  CG1        1.3650    8.6090   -1.2160 C.3    92  VAL92       0.0019
     51  CG2        2.8740    6.6950   -0.7820 C.3    92  VAL92       0.0019
     52  N          1.7410   14.5050   -1.8300 N.3   108  MET108     -0.1230
     53  CA         1.1760   13.1590   -1.6410 C.3   108  MET108      0.1702
     54  C          0.1890   13.0040   -0.4800 C.2   108  MET108      0.2592
     55  O          0.1150   13.8030    0.4410 O.2   108  MET108     -0.2718
     56  CB         2.2700   12.1150   -1.3870 C.3   108  MET108      0.0401
     57  CG         3.2770   11.9680   -2.5010 C.3   108  MET108      0.0596
     58  SD         4.9030   11.8890   -1.7580 S.3   108  MET108     -0.1393
     59  CE         5.2260   10.1300   -2.0460 C.3   108  MET108      0.0692
     60  N         -0.5420   11.9090   -0.5180 N.am  109  GLU109     -0.1966
     61  CA        -1.4680   11.5900    0.5540 C.3   109  GLU109      0.1733
     62  C         -0.5960   11.3020    1.7900 C.2   109  GLU109      0.2616
     63  O          0.3820   10.5470    1.6960 O.2   109  GLU109     -0.2715
     64  CB        -2.2420   10.3010    0.1900 C.3   109  GLU109      0.0429
     65  CG        -3.5120   10.0380    1.0350 C.3   109  GLU109      0.1163
     66  CD        -4.6390    9.4390    0.2450 C.2   109  GLU109      0.3649
     67  OE1       -5.2050   10.2930   -0.5660 O.co2 109  GLU109     -0.2457
     68  OE2       -5.0380    8.2950    0.3980 O.co2 109  GLU109     -0.2457
     69  N         -0.9260   11.8940    2.9350 N.am  110  TYR110     -0.1960
     70  CA        -0.1240   11.6650    4.1470 C.3   110  TYR110      0.1771
     71  C         -0.4160   10.3200    4.8100 C.2   110  TYR110      0.2619
     72  O         -1.5220   10.0840    5.2580 O.2   110  TYR110     -0.2715
     73  CB        -0.2480   12.8410    5.1360 C.3   110  TYR110      0.0574
     74  CG         0.1950   12.5230    6.5490 C.ar  110  TYR110     -0.0198
     75  CD1        1.5140   12.1760    6.8320 C.ar  110  TYR110     -0.0009
     76  CD2       -0.6950   12.5910    7.6180 C.ar  110  TYR110     -0.0009
     77  CE1        1.9540   11.9110    8.1280 C.ar  110  TYR110      0.0417
     78  CE2       -0.2810   12.3360    8.9250 C.ar  110  TYR110      0.0417
     79  CZ         1.0450   11.9900    9.1790 C.ar  110  TYR110      0.1957
     80  OH         1.4430   11.7020   10.4540 O.3   110  TYR110     -0.2866
     81  N          0.5710    9.4260    4.8590 N.am  111  VAL111     -0.1977
     82  CA         0.4100    8.1130    5.5050 C.3   111  VAL111      0.1596
     83  C          1.0120    8.2550    6.9200 C.2   111  VAL111      0.2287
     84  O          2.2170    8.3150    7.1110 O.2   111  VAL111     -0.2864
     85  CB         1.0620    6.9890    4.6760 C.3   111  VAL111      0.0276
     86  CG1        0.8040    5.6020    5.2660 C.3   111  VAL111      0.0022
     87  CG2        0.5240    7.0500    3.2570 C.3   111  VAL111      0.0022
     88  N          6.9420    4.9150    9.2320 N.3   115  GLU115     -0.1245
     89  CA         7.6670    3.9410    8.4360 C.3   115  GLU115      0.1567
     90  C          7.6290    2.4990    8.9480 C.2   115  GLU115      0.2260
     91  O          7.6090    2.2220   10.1450 O.2   115  GLU115     -0.2867
     92  CB         9.1300    4.3810    8.1220 C.3   115  GLU115      0.0388
     93  CG         9.3460    5.8580    7.6760 C.3   115  GLU115      0.1160
     94  CD        10.8070    6.1860    7.6890 C.2   115  GLU115      0.3649
     95  OE1       11.6160    5.3440    8.0290 O.co2 115  GLU115     -0.2457
     96  OE2       11.1200    7.4150    7.3800 O.co2 115  GLU115     -0.2457
     97  N         12.2570    1.6280    4.9860 N.3   158  GLU158     -0.1231
     98  CA        12.1410    3.0680    5.0730 C.3   158  GLU158      0.1699
     99  C         11.1530    3.6690    4.0800 C.2   158  GLU158      0.2592
    100  O         10.7700    4.8460    4.2650 O.2   158  GLU158     -0.2718
    101  CB        13.5070    3.7340    4.7890 C.3   158  GLU158      0.0402
    102  CG        14.6430    3.4320    5.8060 C.3   158  GLU158      0.1161
    103  CD        15.4230    2.1480    5.6020 C.2   158  GLU158      0.3649
    104  OE1       14.8890    1.0980    5.3790 O.co2 158  GLU158     -0.2457
    105  OE2       16.7070    2.2300    5.8080 O.co2 158  GLU158     -0.2457
    106  N         10.8010    2.8990    3.0220 N.am  159  ASN159     -0.1974
    107  CA         9.8920    3.3830    1.9480 C.3   159  ASN159      0.1688
    108  C          8.5420    2.7260    1.9740 C.2   159  ASN159      0.2292
    109  O          7.6750    3.0110    1.1420 O.2   159  ASN159     -0.2864
    110  CB        10.4480    3.2850    0.5120 C.3   159  ASN159      0.1181
    111  CG        11.6200    4.1970    0.2540 C.2   159  ASN159      0.2629
    112  OD1       11.7240    5.2600    0.8810 O.2   159  ASN159     -0.2716
    113  ND2       12.5100    3.7670   -0.6540 N.am  159  ASN159     -0.0877
    114  N          5.3790    2.7130    4.0070 N.3   161  LEU161     -0.1245
    115  CA         4.5150    3.4190    4.9700 C.3   161  LEU161      0.1561
    116  C          3.2970    2.5810    5.3930 C.2   161  LEU161      0.2260
    117  O          2.6520    1.9330    4.5870 O.2   161  LEU161     -0.2867
    118  CB         4.0880    4.8060    4.4680 C.3   161  LEU161      0.0270
    119  CG         5.2450    5.6440    3.9330 C.3   161  LEU161      0.0019
    120  CD1        4.7320    7.0080    3.5270 C.3   161  LEU161      0.0001
    121  CD2        6.3270    5.8490    5.0010 C.3   161  LEU161      0.0001
    122  N          6.2360    4.4620   -1.0090 N.3   171  THR171     -0.1203
    123  CA         6.5370    5.8870   -1.3060 C.3   171  THR171      0.1994
    124  C          7.9100    6.0150   -1.9850 C.2   171  THR171      0.2617
    125  O          8.6660    5.0370   -1.9700 O.2   171  THR171     -0.2717
    126  CB         6.5760    6.7430   -0.0210 C.3   171  THR171      0.1784
    127  OG1        6.6820    8.0910   -0.3850 O.3   171  THR171     -0.2211
    128  CG2        7.7950    6.3480    0.8020 C.3   171  THR171      0.0376
    129  N          8.2360    7.2020   -2.5730 N.am  172  ASP172     -0.1973
    130  CA         9.5480    7.4230   -3.2370 C.3   172  ASP172      0.1709
    131  C          9.7330    6.6200   -4.4890 C.2   172  ASP172      0.2293
    132  O         10.0840    5.4450   -4.4400 O.2   172  ASP172     -0.2864
    133  CB        10.7490    7.1160   -2.3390 C.3   172  ASP172      0.1436
    134  CG        12.0530    7.7450   -2.7780 C.2   172  ASP172      0.3671
    135  OD1       12.2620    7.6840   -4.0690 O.co2 172  ASP172     -0.2456
    136  OD2       12.7880    8.3280   -2.0050 O.co2 172  ASP172     -0.2456
    137  N          6.5180    9.0150   13.5980 N.3   314  PHE314     -0.1241
    138  CA         7.6770    9.4720   12.8320 C.3   314  PHE314      0.1605
    139  C          8.7550   10.1420   13.6840 C.2   314  PHE314      0.2264
    140  O          8.4530   10.8640   14.6240 O.2   314  PHE314     -0.2867
    141  CB         7.2250   10.5090   11.7830 C.3   314  PHE314      0.0534
    142  CG         6.3810    9.9510   10.6670 C.ar  314  PHE314     -0.0203
    143  CD1        4.9860    9.9210   10.7870 C.ar  314  PHE314     -0.0042
    144  CD2        6.9790    9.4860    9.4910 C.ar  314  PHE314     -0.0042
    145  CE1        4.1990    9.4140    9.7500 C.ar  314  PHE314     -0.0003
    146  CE2        6.2150    8.9630    8.4490 C.ar  314  PHE314     -0.0003
    147  CZ         4.8240    8.9270    8.5960 C.ar  314  PHE314     -0.0000
@<TRIPOS>BOND
     1    48    47    2
     2   131   132    2
     3   131   130    1
     4   135   134   ar
     5    44    43    1
     6    47    46    1
     7    43    42    1
     8   130   129    1
     9   130   133    1
    10    39    38    2
    11    42    41    1
    12    45    46    1
    13   134   133    1
    14   134   136   ar
    15   129   124   am
    16    57    58    1
    17    57    56    1
    18    46    49    1
    19    41    40    1
    20    40    37    1
    21    59    58    1
    22   124   125    2
    23   124   123    1
    24    38    37    1
    25    49    50    1
    26    49    51    1
    27    52    53    1
    28    53    56    1
    29    53    54    1
    30    37    36    1
    31   123   122    1
    32   123   126    1
    33   113   111   am
    34    67    66   ar
    35    60    54   am
    36    60    61    1
    37    54    55    2
    38   127   126    1
    39   126   128    1
    40    64    61    1
    41    64    65    1
    42    66    68   ar
    43    66    65    1
    44   111   110    1
    45   111   112    2
    46    34    33    2
    47   110   107    1
    48    61    62    1
    49    22    23    2
    50    22    21    1
    51   109   108    2
    52    33    32    1
    53    21    20    1
    54    63    62    2
    55    62    69   am
    56    30    28    1
    57   107   108    1
    58   107   106    1
    59    20    15   am
    60    31    32    1
    61    32    35    1
    62    69    70    1
    63    29    28    1
    64   106    99   am
    65    28    25    1
    66    25    24    1
    67    25    26    1
    68    87    85    1
    69   120   119    1
    70    15    16    2
    71    15    14    1
    72   119   118    1
    73   119   121    1
    74   114   115    1
    75    99   100    2
    76    99    98    1
    77    70    71    1
    78    70    73    1
    79    26    27    2
    80   118   115    1
    81   117   116    2
    82    85    86    1
    83    85    82    1
    84    14    17    1
    85    14    13    1
    86   101    98    1
    87   101   102    1
    88    71    81   am
    89    71    72    2
    90    81    82    1
    91   115   116    1
    92    97    98    1
    93    19    17    1
    94    73    74    1
    95    12    11    2
    96   104   103   ar
    97    82    83    1
    98   103   102    1
    99   103   105   ar
   100    17    18    1
   101    13    11   am
   102    11    10    1
   103    74    75   ar
   104    74    76   ar
   105     7     6    1
   106    75    77   ar
   107    83    84    2
   108    10     9    1
   109     9     3   am
   110     5     6    1
   111     5     2    1
   112    96    94   ar
   113    76    78   ar
   114    93    94    1
   115    93    92    1
   116    94    95   ar
   117     6     8    1
   118     3     2    1
   119     3     4    2
   120     1     2    1
   121    92    89    1
   122    77    79   ar
   123    89    90    1
   124    89    88    1
   125   146   147   ar
   126   146   144   ar
   127   147   145   ar
   128    78    79   ar
   129    90    91    2
   130    79    80    1
   131   144   142   ar
   132   145   143   ar
   133   142   143   ar
   134   142   141    1
   135   141   138    1
   136   138   137    1
   137   138   139    1
   138   139   140    2
