@<TRIPOS>MOLECULE
tmp/1fmwA00.pdb
 201 197 0 0 0
SMALL
GASTEIGER

@<TRIPOS>ATOM
      1  N         43.4920   44.7180   15.1940 N.3   114  ILE114     -0.1231
      2  CA        42.3100   45.3230   15.7680 C.3   114  ILE114      0.1692
      3  C         40.9430   45.0200   15.1520 C.2   114  ILE114      0.2592
      4  O         39.9620   45.1490   15.8590 O.2   114  ILE114     -0.2718
      5  CB        42.4830   46.7900   16.0510 C.3   114  ILE114      0.0266
      6  CG1       42.6130   47.5560   14.7720 C.3   114  ILE114      0.0019
      7  CG2       43.6810   47.0120   16.9420 C.3   114  ILE114      0.0020
      8  CD1       42.3820   49.0480   14.9870 C.3   114  ILE114      0.0001
      9  N         40.8950   44.6380   13.8720 N.am  115  TYR115     -0.1976
     10  CA        39.6630   44.3200   13.1740 C.3   115  TYR115      0.1639
     11  C         39.4860   42.8620   12.9110 C.2   115  TYR115      0.2290
     12  O         40.3620   42.1830   12.3660 O.2   115  TYR115     -0.2864
     13  CB        39.6230   44.9710   11.8030 C.3   115  TYR115      0.0560
     14  CG        39.6600   46.4570   11.9000 C.ar  115  TYR115     -0.0198
     15  CD1       38.5820   47.1520   12.4520 C.ar  115  TYR115     -0.0009
     16  CD2       40.7510   47.1870   11.4230 C.ar  115  TYR115     -0.0009
     17  CE1       38.6230   48.5470   12.5280 C.ar  115  TYR115      0.0417
     18  CE2       40.7980   48.5830   11.4690 C.ar  115  TYR115      0.0417
     19  CZ        39.7250   49.2570   12.0440 C.ar  115  TYR115      0.1957
     20  OH        39.7270   50.6240   12.1240 O.3   115  TYR115     -0.2866
     21  N         40.0530   48.9000   20.3650 N.3   126  ASN126     -0.1226
     22  CA        40.9030   50.0930   20.4830 C.3   126  ASN126      0.1770
     23  C         42.3050   49.6760   20.7840 C.2   126  ASN126      0.2439
     24  O         42.4860   48.9890   21.7910 O.2   126  ASN126     -0.2733
     25  CB        40.5310   51.0670   21.6080 C.3   126  ASN126      0.1168
     26  CG        41.1340   52.4080   21.3310 C.2   126  ASN126      0.2627
     27  OD1       42.1510   52.5630   20.6370 O.2   126  ASN126     -0.2716
     28  ND2       40.4830   53.3950   21.8490 N.am  126  ASN126     -0.0877
     29  N         43.2580   50.0910   19.9270 N.am  127  PRO127     -0.2718
     30  CA        44.6610   49.7420   20.1180 C.3   127  PRO127      0.1535
     31  C         45.3040   50.5720   21.1940 C.2   127  PRO127      0.2599
     32  O         46.1860   50.1340   21.9040 O.2   127  PRO127     -0.2715
     33  CB        45.3720   50.1010   18.8000 C.3   127  PRO127      0.0310
     34  CG        44.4280   51.0580   18.0740 C.3   127  PRO127      0.0237
     35  CD        43.0540   50.6260   18.5440 C.3   127  PRO127      0.0939
     36  N         44.8640   51.7910   21.2970 N.am  128  PHE128     -0.1960
     37  CA        45.4310   52.6500   22.2810 C.3   128  PHE128      0.1771
     38  C         46.8620   53.0270   21.9670 C.2   128  PHE128      0.2619
     39  O         47.6570   53.3020   22.8650 O.2   128  PHE128     -0.2715
     40  CB        45.2630   52.1650   23.7330 C.3   128  PHE128      0.0574
     41  CG        43.9580   52.6440   24.3200 C.ar  128  PHE128     -0.0200
     42  CD1       43.4990   53.9370   24.0750 C.ar  128  PHE128     -0.0042
     43  CD2       43.1970   51.7610   25.0930 C.ar  128  PHE128     -0.0042
     44  CE1       42.2800   54.3530   24.6130 C.ar  128  PHE128     -0.0003
     45  CE2       41.9780   52.1610   25.6350 C.ar  128  PHE128     -0.0003
     46  CZ        41.5300   53.4550   25.3760 C.ar  128  PHE128     -0.0000
     47  N         47.1740   53.0830   20.6920 N.am  129  LYS129     -0.1963
     48  CA        48.4580   53.4580   20.1610 C.3   129  LYS129      0.1728
     49  C         48.2920   53.5150   18.6950 C.2   129  LYS129      0.2616
     50  O         47.4140   52.8740   18.1740 O.2   129  LYS129     -0.2715
     51  CB        49.5530   52.5050   20.4290 C.3   129  LYS129      0.0311
     52  CG        49.2720   51.1550   19.8520 C.3   129  LYS129      0.0038
     53  CD        50.6040   50.5110   19.6380 C.3   129  LYS129      0.0206
     54  CE        50.4770   49.1750   19.0220 C.3   129  LYS129      0.1093
     55  NZ        51.7950   48.5240   18.8650 N.3   129  LYS129     -0.1314
     56  N         49.1160   54.2580   18.0110 N.am  130  ARG130     -0.1963
     57  CA        48.9550   54.3330   16.5830 C.3   130  ARG130      0.1729
     58  C         49.4430   53.1080   15.7610 C.2   130  ARG130      0.2616
     59  O         50.4530   52.4660   16.0450 O.2   130  ARG130     -0.2715
     60  CB        49.2530   55.7430   16.0470 C.3   130  ARG130      0.0348
     61  CG        50.4600   55.8370   15.1390 C.3   130  ARG130      0.0492
     62  CD        51.6120   56.6170   15.7580 C.3   130  ARG130      0.2205
     63  NE        52.0570   57.7260   14.9180 N.pl3 130  ARG130     -0.0865
     64  CZ        52.4350   58.9140   15.3960 C.cat 130  ARG130      0.5346
     65  NH1       52.4560   59.1640   16.7050 N.pl3 130  ARG130      0.1354
     66  NH2       52.8280   59.8720   14.5460 N.pl3 130  ARG130      0.1354
     67  N         48.6530   52.8050   14.7360 N.am  131  ILE131     -0.1977
     68  CA        48.8000   51.7400   13.7390 C.3   131  ILE131      0.1596
     69  C         48.5800   52.4350   12.4190 C.2   131  ILE131      0.2287
     70  O         47.5040   52.9900   12.1570 O.2   131  ILE131     -0.2864
     71  CB        47.8200   50.6450   13.9830 C.3   131  ILE131      0.0276
     72  CG1       48.2720   50.0580   15.2990 C.3   131  ILE131      0.0022
     73  CG2       47.9910   49.6040   12.9070 C.3   131  ILE131      0.0022
     74  CD1       47.5360   48.7830   15.6710 C.3   131  ILE131      0.0001
     75  N         45.9060   53.5830    7.9180 N.3   134  TYR134     -0.1241
     76  CA        44.9420   54.5130    7.4030 C.3   134  TYR134      0.1605
     77  C         45.5130   55.5230    6.4130 C.2   134  TYR134      0.2264
     78  O         45.0050   56.6270    6.2440 O.2   134  TYR134     -0.2867
     79  CB        44.3040   55.2570    8.5800 C.3   134  TYR134      0.0534
     80  CG        43.7250   54.3520    9.6510 C.ar  134  TYR134     -0.0201
     81  CD1       42.5740   53.5970    9.4260 C.ar  134  TYR134     -0.0009
     82  CD2       44.3090   54.2690   10.9170 C.ar  134  TYR134     -0.0009
     83  CE1       42.0390   52.7570   10.4110 C.ar  134  TYR134      0.0417
     84  CE2       43.7690   53.4660   11.9240 C.ar  134  TYR134      0.0417
     85  CZ        42.6240   52.7020   11.6800 C.ar  134  TYR134      0.1957
     86  OH        42.1160   51.9030   12.6790 O.3   134  TYR134     -0.2866
     87  N         31.1160   51.5750   23.9380 N.3   179  GLU179     -0.1231
     88  CA        31.4030   52.5180   25.0180 C.3   179  GLU179      0.1699
     89  C         32.2460   53.7090   24.7330 C.2   179  GLU179      0.2593
     90  O         32.9080   53.7840   23.7320 O.2   179  GLU179     -0.2718
     91  CB        31.9650   51.9300   26.2840 C.3   179  GLU179      0.0402
     92  CG        31.9150   50.4240   26.3950 C.3   179  GLU179      0.1161
     93  CD        32.3160   50.1180   27.8020 C.2   179  GLU179      0.3649
     94  OE1       32.9650   50.9090   28.4520 O.co2 179  GLU179     -0.2457
     95  OE2       31.8670   48.9730   28.2630 O.co2 179  GLU179     -0.2457
     96  N         32.2210   54.6450   25.6710 N.am  180  SER180     -0.1938
     97  CA        32.9870   55.8630   25.5560 C.3   180  SER180      0.2055
     98  C         34.4580   55.5190   25.4510 C.2   180  SER180      0.2644
     99  O         34.9890   54.7120   26.2160 O.2   180  SER180     -0.2714
    100  CB        32.7420   56.7770   26.7400 C.3   180  SER180      0.2130
    101  OG        33.4610   58.0160   26.6350 O.3   180  SER180     -0.2179
    102  N         35.1460   56.1160   24.5100 N.am  181  GLY181     -0.1939
    103  CA        36.5500   55.7630   24.4310 C.3   181  GLY181      0.2014
    104  C         36.8620   54.5130   23.6250 C.2   181  GLY181      0.2639
    105  O         38.0260   54.2340   23.3470 O.2   181  GLY181     -0.2714
    106  N         35.8510   53.7520   23.2230 N.am  182  ALA182     -0.1963
    107  CA        36.0540   52.5410   22.4370 C.3   182  ALA182      0.1728
    108  C         36.5990   52.7990   21.0420 C.2   182  ALA182      0.2617
    109  O         37.1690   51.8780   20.4230 O.2   182  ALA182     -0.2715
    110  CB        34.7780   51.6690   22.3530 C.3   182  ALA182      0.0334
    111  N         36.4370   54.0180   20.5140 N.am  183  GLY183     -0.1940
    112  CA        36.9640   54.3080   19.1700 C.3   183  GLY183      0.2014
    113  C         35.9890   54.5230   18.0560 C.2   183  GLY183      0.2639
    114  O         36.3590   54.3470   16.8890 O.2   183  GLY183     -0.2714
    115  N         34.7640   54.9230   18.4030 N.am  184  LYS184     -0.1963
    116  CA        33.7050   55.1740   17.4250 C.3   184  LYS184      0.1728
    117  C         33.9890   56.3150   16.4710 C.2   184  LYS184      0.2617
    118  O         33.8930   56.1930   15.2330 O.2   184  LYS184     -0.2715
    119  CB        32.3530   55.4830   18.0760 C.3   184  LYS184      0.0311
    120  CG        31.8580   54.3430   18.9700 C.3   184  LYS184      0.0038
    121  CD        30.5790   54.6750   19.7200 C.3   184  LYS184      0.0206
    122  CE        30.7430   55.8300   20.6780 C.3   184  LYS184      0.1093
    123  NZ        31.2300   55.3660   21.9830 N.3   184  LYS184     -0.1314
    124  N         34.3220   57.4440   17.0610 N.am  185  THR185     -0.1937
    125  CA        34.5870   58.6070   16.2480 C.3   185  THR185      0.2028
    126  C         35.7860   58.3760   15.3260 C.2   185  THR185      0.2642
    127  O         35.8650   58.7980   14.1530 O.2   185  THR185     -0.2714
    128  CB        34.5940   59.9040   17.0930 C.3   185  THR185      0.1808
    129  OG1       33.5870   59.8560   18.0850 O.3   185  THR185     -0.2208
    130  CG2       34.3540   61.1060   16.2060 C.3   185  THR185      0.0379
    131  N         36.7320   57.6680   15.8760 N.am  186  GLU186     -0.1963
    132  CA        37.9000   57.3860   15.0900 C.3   186  GLU186      0.1733
    133  C         37.5090   56.6130   13.8430 C.2   186  GLU186      0.2616
    134  O         37.9480   56.9140   12.7490 O.2   186  GLU186     -0.2715
    135  CB        38.9920   56.6380   15.8900 C.3   186  GLU186      0.0429
    136  CG        39.9420   57.5860   16.6460 C.3   186  GLU186      0.1163
    137  CD        40.7340   58.4490   15.7140 C.2   186  GLU186      0.3649
    138  OE1       40.6380   59.6560   15.7050 O.co2 186  GLU186     -0.2457
    139  OE2       41.5280   57.7680   14.9170 O.co2 186  GLU186     -0.2457
    140  N         36.6790   55.6140   14.0190 N.am  187  ASN187     -0.1972
    141  CA        36.2780   54.8460   12.8970 C.3   187  ASN187      0.1688
    142  C         35.3520   55.6170   11.9840 C.2   187  ASN187      0.2292
    143  O         35.3400   55.4610   10.7500 O.2   187  ASN187     -0.2864
    144  CB        35.7330   53.5470   13.3760 C.3   187  ASN187      0.1181
    145  CG        36.8430   52.5740   13.7090 C.2   187  ASN187      0.2629
    146  OD1       37.3850   51.8900   12.8380 O.2   187  ASN187     -0.2716
    147  ND2       37.1390   52.4540   15.0000 N.am  187  ASN187     -0.0877
    148  N         37.8480   59.4720   28.3120 N.3   226  ASN226     -0.1240
    149  CA        38.3810   59.8220   27.0380 C.3   226  ASN226      0.1653
    150  C         38.6830   61.2890   27.0250 C.2   226  ASN226      0.2266
    151  O         37.8930   62.1100   27.4970 O.2   226  ASN226     -0.2867
    152  CB        37.3710   59.2970   25.9740 C.3   226  ASN226      0.1155
    153  CG        37.6390   59.6410   24.5270 C.2   226  ASN226      0.2627
    154  OD1       38.6770   60.2360   24.1570 O.2   226  ASN226     -0.2716
    155  ND2       36.7070   59.2350   23.6780 N.am  226  ASN226     -0.0877
    156  N         38.9200   63.1550   24.4950 N.3   228  ASN228     -0.1225
    157  CA        38.2440   63.8880   23.4750 C.3   228  ASN228      0.1785
    158  C         36.8810   63.2260   23.2610 C.2   228  ASN228      0.2598
    159  O         36.5370   62.8160   22.1720 O.2   228  ASN228     -0.2718
    160  CB        39.1110   63.8550   22.2290 C.3   228  ASN228      0.1169
    161  CG        38.5340   64.5810   21.0320 C.2   228  ASN228      0.2627
    162  OD1       38.0910   65.7340   21.1410 O.2   228  ASN228     -0.2716
    163  ND2       38.5700   63.8990   19.8760 N.am  228  ASN228     -0.0877
    164  N         36.0900   63.0940   24.3080 N.am  229  SER229     -0.1938
    165  CA        34.7730   62.4430   24.1850 C.3   229  SER229      0.2055
    166  C         33.6960   63.2290   23.4770 C.2   229  SER229      0.2644
    167  O         33.5570   64.4230   23.7110 O.2   229  SER229     -0.2714
    168  CB        34.2240   62.2110   25.5710 C.3   229  SER229      0.2130
    169  OG        33.3070   61.1640   25.5400 O.3   229  SER229     -0.2179
    170  N         32.9130   62.5560   22.6430 N.am  230  SER230     -0.1935
    171  CA        31.8100   63.2360   21.9520 C.3   230  SER230      0.2055
    172  C         30.6350   63.1670   22.9180 C.2   230  SER230      0.2642
    173  O         30.1840   62.0740   23.2380 O.2   230  SER230     -0.2714
    174  CB        31.3520   62.4490   20.7530 C.3   230  SER230      0.2130
    175  OG        31.9580   62.9810   19.6070 O.3   230  SER230     -0.2179
    176  N         30.1760   64.3230   23.3660 N.am  231  ARG231     -0.1977
    177  CA        29.0670   64.4420   24.2980 C.3   231  ARG231      0.1597
    178  C         27.7440   64.6350   23.5430 C.2   231  ARG231      0.2287
    179  O         26.8600   65.3890   23.9320 O.2   231  ARG231     -0.2864
    180  CB        29.2980   65.6800   25.1710 C.3   231  ARG231      0.0334
    181  CG        30.6180   65.6730   25.9150 C.3   231  ARG231      0.0492
    182  CD        30.5020   64.8430   27.1510 C.3   231  ARG231      0.2205
    183  NE        30.6370   63.4540   26.8710 N.pl3 231  ARG231     -0.0865
    184  CZ        30.2390   62.4860   27.6740 C.cat 231  ARG231      0.5346
    185  NH1       29.6590   62.6820   28.8490 N.pl3 231  ARG231      0.1354
    186  NH2       30.4490   61.2460   27.2800 N.pl3 231  ARG231      0.1354
    187  N         26.7420   56.2110   21.4270 N.3   449  SER449     -0.1217
    188  CA        27.0350   55.1090   22.3220 C.3   449  SER449      0.1889
    189  C         26.0760   53.9460   22.2320 C.2   449  SER449      0.2288
    190  O         24.9550   54.0760   21.7320 O.2   449  SER449     -0.2866
    191  CB        27.0050   55.6210   23.7870 C.3   449  SER449      0.2089
    192  OG        26.7190   54.5580   24.7100 O.3   449  SER449     -0.2183
    193  N         42.9640   53.0570   29.3300 N.3   641  GLN641     -0.1196
    194  CA        43.5080   53.8410   28.2200 C.3   641  GLN641      0.1782
    195  C         44.9580   53.4780   27.8540 C.2   641  GLN641      0.2306
    196  O         45.7480   54.3230   27.4200 O.2   641  GLN641     -0.2863
    197  CB        43.3980   55.3730   28.4290 C.2   641  GLN641      0.0051
    198  CG        41.9570   55.9530   28.4780 C.2   641  GLN641      0.0584
    199  CD        41.8480   57.4700   28.6650 C.2   641  GLN641      0.2840
    200  OE1       41.2590   57.9370   29.6560 O.2   641  GLN641     -0.2667
    201  NE2       42.3410   58.2560   27.7070 N.am  641  GLN641     -0.0837
@<TRIPOS>BOND
     1    78    77    2
     2    77    76    1
     3    76    75    1
     4    76    79    1
     5    79    80    1
     6    81    80   ar
     7    81    83   ar
     8    80    82   ar
     9    83    85   ar
    10   143   142    2
    11    82    84   ar
    12    16    18   ar
    13    16    14   ar
    14    18    19   ar
    15    85    84   ar
    16    85    86    1
    17    13    14    1
    18    13    10    1
    19    14    15   ar
    20   142   141    1
    21    19    20    1
    22    19    17   ar
    23    70    69    2
    24    12    11    2
    25    69    68    1
    26    15    17   ar
    27   134   133    2
    28   146   145    2
    29   141   144    1
    30   141   140    1
    31    73    71    1
    32    11    10    1
    33    10     9    1
    34   144   145    1
    35   145   147   am
    36    68    71    1
    37    68    67    1
    38   133   140   am
    39   133   132    1
    40     9     3   am
    41    71    72    1
    42   127   126    2
    43    66    64    1
    44    67    58   am
    45     6     8    1
    46     6     5    1
    47   139   137   ar
    48    63    64    2
    49    63    62    1
    50   132   131    1
    51   132   135    1
    52    61    62    1
    53    61    60    1
    54     3     2    1
    55     3     4    2
    56     1     2    1
    57   118   117    2
    58    72    74    1
    59   126   131   am
    60   126   125    1
    61    64    65    1
    62   138   137   ar
    63   137   136    1
    64    58    59    2
    65    58    57    1
    66     2     5    1
    67   135   136    1
    68    60    57    1
    69     5     7    1
    70   130   128    1
    71   125   124    1
    72   125   128    1
    73   117   124   am
    74   117   116    1
    75    57    56    1
    76   114   113    2
    77   128   129    1
    78   116   119    1
    79   116   115    1
    80    56    49   am
    81   113   115   am
    82   113   112    1
    83    34    35    1
    84    34    33    1
    85   119   120    1
    86    50    49    2
    87    35    29    1
    88    49    48    1
    89    33    30    1
    90    55    54    1
    91   120   121    1
    92    54    53    1
    93   112   111    1
    94   175   174    1
    95    53    52    1
    96   121   122    1
    97    52    51    1
    98   163   161   am
    99    29    30    1
   100    29    23   am
   101    30    31    1
   102    48    51    1
   103    48    47    1
   104    21    22    1
   105   109   108    2
   106    22    23    1
   107    22    25    1
   108   111   108   am
   109    27    26    2
   110   122   123    1
   111    47    38   am
   112   174   171    1
   113    23    24    2
   114   161   162    2
   115   161   160    1
   116   108   107    1
   117    31    36   am
   118    31    32    2
   119    36    37    1
   120    26    25    1
   121    26    28   am
   122   187   188    1
   123   190   189    2
   124   171   170    1
   125   171   172    1
   126    38    37    1
   127    38    39    2
   128   159   158    2
   129   160   157    1
   130   189   188    1
   131    37    40    1
   132   188   191    1
   133   110   107    1
   134   107   106    1
   135   170   166   am
   136   172   173    2
   137   172   176   am
   138   106   104   am
   139   158   157    1
   140   158   164   am
   141   105   104    2
   142   176   177    1
   143   157   156    1
   144   166   167    2
   145   166   165    1
   146   178   179    2
   147   178   177    1
   148   104   103    1
   149   155   153   am
   150    90    89    2
   151    40    41    1
   152   191   192    1
   153    87    88    1
   154    42    41   ar
   155    42    44   ar
   156   154   153    2
   157   165   164    1
   158   165   168    1
   159   177   180    1
   160    41    43   ar
   161   103   102    1
   162   102    98   am
   163   153   152    1
   164    44    46   ar
   165    89    88    1
   166    89    96   am
   167    88    91    1
   168    43    45   ar
   169   180   181    1
   170    46    45   ar
   171    98    97    1
   172    98    99    2
   173   169   168    1
   174    97    96    1
   175    97   100    1
   176   181   182    1
   177   152   149    1
   178    91    92    1
   179    92    93    1
   180   101   100    1
   181   183   182    1
   182   183   184    2
   183   150   149    1
   184   150   151    2
   185   149   148    1
   186   186   184    1
   187   196   195    2
   188   184   185    1
   189   201   199   am
   190    93    95   ar
   191    93    94   ar
   192   195   194    1
   193   194   197    1
   194   194   193    1
   195   197   198    2
   196   198   199    1
   197   199   200    2
