@<TRIPOS>MOLECULE
tmp/1fncA01.pdb
 127 121 0 0 0
SMALL
GASTEIGER

@<TRIPOS>ATOM
      1  N         15.4060  -11.8290   12.5850 N.3    36  PRO36      -0.2116
      2  CA        15.1960  -11.4990   11.1930 C.3    36  PRO36       0.1372
      3  C         16.3590  -10.6590   10.7330 C.2    36  PRO36       0.2244
      4  O         16.3960   -9.4160   10.8860 O.2    36  PRO36      -0.2868
      5  CB        13.9400  -10.6110   11.1480 C.3    36  PRO36       0.0268
      6  CG        13.4830  -10.4160   12.5750 C.3    36  PRO36       0.0207
      7  CD        14.2970  -11.3590   13.4400 C.3    36  PRO36       0.0892
      8  N         24.0490   -3.9070   10.7290 N.3    98  LYS98      -0.1245
      9  CA        23.1170   -4.9260   10.2650 C.3    98  LYS98       0.1561
     10  C         23.5810   -5.4030    8.8500 C.2    98  LYS98       0.2260
     11  O         23.9260   -4.5590    8.0200 O.2    98  LYS98      -0.2867
     12  CB        21.7220   -4.3170   10.0530 C.3    98  LYS98       0.0271
     13  CG        20.6790   -5.4530   10.0040 C.3    98  LYS98       0.0035
     14  CD        19.2400   -5.0100    9.6940 C.3    98  LYS98       0.0206
     15  CE        18.1580   -6.0350   10.0700 C.3    98  LYS98       0.1093
     16  NZ        16.9290   -5.9690    9.2420 N.3    98  LYS98      -0.1314
     17  N         15.9630    2.7520   17.0600 N.3   152  THR152     -0.1203
     18  CA        15.4510    1.5530   16.4410 C.3   152  THR152      0.1994
     19  C         16.6320    0.8010   15.8790 C.2   152  THR152      0.2618
     20  O         17.3890    1.4140   15.1190 O.2   152  THR152     -0.2717
     21  CB        14.4580    1.7310   15.2890 C.3   152  THR152      0.1784
     22  OG1       14.8940    2.7680   14.4290 O.3   152  THR152     -0.2211
     23  CG2       13.0920    2.0610   15.8930 C.3   152  THR152      0.0376
     24  N         16.6830   -0.5240   16.1540 N.am  153  GLY153     -0.1942
     25  CA        17.7380   -1.4040   15.6550 C.3   153  GLY153      0.2014
     26  C         19.1490   -0.8480   15.9310 C.2   153  GLY153      0.2639
     27  O         19.4740   -0.5170   17.0970 O.2   153  GLY153     -0.2714
     28  N         19.9320   -0.7260   14.8700 N.am  154  THR154     -0.1950
     29  CA        21.3240   -0.2590   14.9450 C.3   154  THR154      0.1897
     30  C         21.3710    1.1490   15.4410 C.2   154  THR154      0.2313
     31  O         22.4280    1.7310   15.6750 O.2   154  THR154     -0.2863
     32  CB        22.1210   -0.3480   13.6020 C.3   154  THR154      0.1794
     33  OG1       21.5680    0.4490   12.5960 O.3   154  THR154     -0.2208
     34  CG2       22.2190   -1.7690   13.1000 C.3   154  THR154      0.0378
     35  N         13.5310    0.0740   20.0490 N.3   185  GLY185     -0.1210
     36  CA        12.6480   -0.7110   19.1960 C.3   185  GLY185      0.1956
     37  C         13.4130   -1.7720   18.3840 C.2   185  GLY185      0.2612
     38  O         14.2160   -1.4270   17.5170 O.2   185  GLY185     -0.2717
     39  N         13.1600   -3.0530   18.6510 N.am  186  VAL186     -0.1966
     40  CA        13.7490   -4.1730   17.8950 C.3   186  VAL186      0.1712
     41  C         12.6160   -5.1970   17.5990 C.2   186  VAL186      0.2458
     42  O         11.5650   -5.0810   18.1920 O.2   186  VAL186     -0.2730
     43  CB        14.8120   -4.8660   18.7060 C.3   186  VAL186      0.0289
     44  CG1       15.9300   -3.8890   18.9230 C.3   186  VAL186      0.0023
     45  CG2       14.1900   -5.2240   20.0500 C.3   186  VAL186      0.0023
     46  N         12.7850   -6.1230   16.6450 N.am  187  PRO187     -0.2727
     47  CA        11.7380   -7.0730   16.2340 C.3   187  PRO187      0.1402
     48  C         11.4870   -8.2430   17.1540 C.2   187  PRO187      0.2269
     49  O         10.3270   -8.6170   17.3950 O.2   187  PRO187     -0.2865
     50  CB        12.2200   -7.6560   14.9170 C.3   187  PRO187      0.0296
     51  CG        13.6910   -7.3140   14.7940 C.3   187  PRO187      0.0237
     52  CD        13.9700   -6.1720   15.7380 C.3   187  PRO187      0.0939
     53  N          8.5700   -5.4720   18.6620 N.3   216  SER216     -0.1202
     54  CA         7.5510   -5.3580   17.6590 C.3   216  SER216      0.2020
     55  C          6.7960   -6.6130   17.2630 C.2   216  SER216      0.2618
     56  O          5.6310   -6.5430   16.9110 O.2   216  SER216     -0.2717
     57  CB         8.0380   -4.5840   16.4440 C.3   216  SER216      0.2103
     58  OG         8.9470   -5.3990   15.6980 O.3   216  SER216     -0.2182
     59  N          7.4810   -7.7310   17.2080 N.am  217  ARG217     -0.1979
     60  CA         6.8590   -8.9410   16.7110 C.3   217  ARG217      0.1597
     61  C          6.4440   -9.8250   17.8040 C.2   217  ARG217      0.2287
     62  O          5.9730  -10.9150   17.5480 O.2   217  ARG217     -0.2864
     63  CB         7.7700   -9.7100   15.7680 C.3   217  ARG217      0.0334
     64  CG         8.1580   -8.7920   14.6300 C.3   217  ARG217      0.0492
     65  CD         8.9010   -9.4730   13.4850 C.3   217  ARG217      0.2205
     66  NE         9.3150   -8.4500   12.5350 N.pl3 217  ARG217     -0.0865
     67  CZ         9.9980   -8.7080   11.4420 C.cat 217  ARG217      0.5346
     68  NH1       10.3270   -9.9600   11.1110 N.pl3 217  ARG217      0.1354
     69  NH2       10.3730   -7.6970   10.6650 N.pl3 217  ARG217      0.1354
     70  N          0.8250   -3.6350   17.0660 N.3   226  LYS226     -0.1245
     71  CA         2.2640   -3.9260   17.0690 C.3   226  LYS226      0.1561
     72  C          3.0560   -2.9320   17.8950 C.2   226  LYS226      0.2260
     73  O          2.9010   -1.7370   17.6830 O.2   226  LYS226     -0.2867
     74  CB         2.8220   -3.9680   15.6640 C.3   226  LYS226      0.0271
     75  CG         3.3440   -5.3470   15.2590 C.3   226  LYS226      0.0035
     76  CD         3.7520   -5.3830   13.7870 C.3   226  LYS226      0.0206
     77  CE         5.1510   -5.9250   13.5040 C.3   226  LYS226      0.1093
     78  NZ         5.5060   -5.9190   12.0750 N.3   226  LYS226     -0.1314
     79  N          5.6400   -0.8580   18.3800 N.3   228  TYR228     -0.1227
     80  CA         6.6450    0.0230   17.9020 C.3   228  TYR228      0.1736
     81  C          7.0280    0.9240   19.0280 C.2   228  TYR228      0.2595
     82  O          6.3290    1.0310   20.0150 O.2   228  TYR228     -0.2718
     83  CB         6.1810    0.9580   16.8250 C.3   228  TYR228      0.0548
     84  CG         6.1320    0.1530   15.5640 C.ar  228  TYR228     -0.0200
     85  CD1        6.8860   -1.0130   15.4980 C.ar  228  TYR228     -0.0009
     86  CD2        5.3370    0.5050   14.4770 C.ar  228  TYR228     -0.0009
     87  CE1        6.9010   -1.7890   14.3450 C.ar  228  TYR228      0.0417
     88  CE2        5.3320   -0.2690   13.3160 C.ar  228  TYR228      0.0417
     89  CZ         6.1070   -1.4260   13.2610 C.ar  228  TYR228      0.1957
     90  OH         6.1440   -2.1940   12.1280 O.3   228  TYR228     -0.2866
     91  N          8.1370    1.5840   18.8260 N.am  229  ILE229     -0.1966
     92  CA         8.6960    2.4590   19.8120 C.3   229  ILE229      0.1727
     93  C          7.6920    3.5370   20.1840 C.2   229  ILE229      0.2616
     94  O          7.5570    3.8200   21.3500 O.2   229  ILE229     -0.2715
     95  CB        10.1110    2.9700   19.4310 C.3   229  ILE229      0.0290
     96  CG1       10.7600    3.8100   20.5280 C.3   229  ILE229      0.0022
     97  CG2       10.0990    3.8190   18.1770 C.3   229  ILE229      0.0023
     98  CD1       12.1340    4.3330   20.0910 C.3   229  ILE229      0.0001
     99  N          6.9960    4.1110   19.2000 N.am  230  GLN230     -0.1977
    100  CA         6.0090    5.1550   19.4270 C.3   230  GLN230      0.1601
    101  C          4.8420    4.5600   20.2020 C.2   230  GLN230      0.2287
    102  O          4.2590    5.2070   21.0510 O.2   230  GLN230     -0.2864
    103  CB         5.5500    5.8520   18.1330 C.3   230  GLN230      0.0394
    104  CG         4.9640    4.7940   17.1660 C.3   230  GLN230      0.0908
    105  CD         5.9280    4.3840   16.0530 C.2   230  GLN230      0.2608
    106  OE1        7.0940    4.2060   16.3340 O.2   230  GLN230     -0.2717
    107  NE2        5.4880    4.2660   14.7870 N.am  230  GLN230     -0.0878
    108  N         15.9910    4.0090   11.9330 N.3   256  LEU256     -0.1245
    109  CA        15.1500    4.0560   10.7120 C.3   256  LEU256      0.1561
    110  C         14.3920    5.3710   10.5270 C.2   256  LEU256      0.2260
    111  O         13.6610    5.8050   11.3860 O.2   256  LEU256     -0.2867
    112  CB        14.0790    2.9520   10.6420 C.3   256  LEU256      0.0270
    113  CG        14.5890    1.5160   10.5720 C.3   256  LEU256      0.0019
    114  CD1       15.5350    1.2050   11.7440 C.3   256  LEU256      0.0001
    115  CD2       13.3990    0.5660   10.6220 C.3   256  LEU256      0.0001
    116  N         11.8740    5.7850    9.0850 N.3   258  GLY258     -0.1210
    117  CA        10.4950    5.6380    9.3580 C.3   258  GLY258      0.1956
    118  C         10.0790    6.0070   10.7850 C.2   258  GLY258      0.2611
    119  O          8.9460    6.4410   11.0210 O.2   258  GLY258     -0.2717
    120  N         10.9230    5.8020   11.7760 N.am  259  MET259     -0.1979
    121  CA        10.4380    6.0870   13.1210 C.3   259  MET259      0.1605
    122  C         10.0650    7.5490   13.3270 C.2   259  MET259      0.2287
    123  O          9.2600    7.9130   14.2050 O.2   259  MET259     -0.2864
    124  CB        11.4960    5.7000   14.1690 C.3   259  MET259      0.0413
    125  CG        12.7510    6.5580   14.0230 C.3   259  MET259      0.0598
    126  SD        14.1180    6.1020   15.2010 S.3   259  MET259     -0.1393
    127  CE        13.1910    5.8060   16.6990 C.3   259  MET259      0.0692
@<TRIPOS>BOND
     1    11    10    2
     2    10     9    1
     3   116   117    1
     4    16    15    1
     5   117   118    1
     6    14    13    1
     7    14    15    1
     8    13    12    1
     9    12     9    1
    10     9     8    1
    11   110   109    1
    12   110   111    2
    13   113   115    1
    14   113   112    1
    15   113   114    1
    16   112   109    1
    17    69    67    1
    18   109   108    1
    19     3     4    2
    20     3     2    1
    21   118   119    2
    22   118   120   am
    23    68    67    1
    24     5     2    1
    25     5     6    1
    26     2     1    1
    27    67    66    2
    28   120   121    1
    29    78    77    1
    30    90    89    1
    31    66    65    1
    32     6     7    1
    33     1     7    1
    34    33    32    1
    35    34    32    1
    36   121   122    1
    37   121   124    1
    38    89    88   ar
    39    89    87   ar
    40    88    86   ar
    41   122   123    2
    42    65    64    1
    43    77    76    1
    44    32    29    1
    45    76    75    1
    46   125   124    1
    47   125   126    1
    48    87    85   ar
    49    22    21    1
    50    86    84   ar
    51    64    63    1
    52   107   105   am
    53    51    50    1
    54    51    52    1
    55    28    29    1
    56    28    26   am
    57    50    47    1
    58    29    30    1
    59    20    19    2
    60   126   127    1
    61    75    74    1
    62    21    23    1
    63    21    18    1
    64    30    31    2
    65    85    84   ar
    66    84    83    1
    67    25    26    1
    68    25    24    1
    69    74    71    1
    70    58    57    1
    71    52    46    1
    72    63    60    1
    73    19    24   am
    74    19    18    1
    75    26    27    2
    76   105   106    2
    77   105   104    1
    78    47    46    1
    79    47    48    1
    80    18    17    1
    81    57    54    1
    82    46    41   am
    83    60    59    1
    84    60    61    1
    85    83    80    1
    86    56    55    2
    87    70    71    1
    88    71    72    1
    89    48    49    2
    90   104   103    1
    91    59    55   am
    92    55    54    1
    93    38    37    2
    94    62    61    2
    95    41    40    1
    96    41    42    2
    97    54    53    1
    98    73    72    2
    99    40    39    1
   100    40    43    1
   101    80    79    1
   102    80    81    1
   103   103   100    1
   104    97    95    1
   105    37    39   am
   106    37    36    1
   107    43    44    1
   108    43    45    1
   109    91    81   am
   110    91    92    1
   111    81    82    2
   112    36    35    1
   113    99   100    1
   114    99    93   am
   115   100   101    1
   116    95    92    1
   117    95    96    1
   118    92    93    1
   119    98    96    1
   120    93    94    2
   121   101   102    2
