@<TRIPOS>MOLECULE
tmp/1fndA01.pdb
 117 110 0 0 0
SMALL
GASTEIGER

@<TRIPOS>ATOM
      1  N         24.0730   -3.9610   10.7600 N.3    98  LYS98      -0.1245
      2  CA        23.1080   -4.9050   10.2760 C.3    98  LYS98       0.1561
      3  C         23.5350   -5.4150    8.8790 C.2    98  LYS98       0.2260
      4  O         23.8580   -4.6040    8.0290 O.2    98  LYS98      -0.2867
      5  CB        21.7260   -4.2400   10.1090 C.3    98  LYS98       0.0271
      6  CG        20.6940   -5.4160    9.9960 C.3    98  LYS98       0.0035
      7  CD        19.2300   -5.0400    9.6920 C.3    98  LYS98       0.0206
      8  CE        18.1810   -6.0790   10.1140 C.3    98  LYS98       0.1093
      9  NZ        16.9130   -5.9880    9.3590 N.3    98  LYS98      -0.1314
     10  N         15.9050    2.7340   17.0070 N.3   152  THR152     -0.1203
     11  CA        15.3750    1.5360   16.4160 C.3   152  THR152      0.1994
     12  C         16.6090    0.7860   15.8560 C.2   152  THR152      0.2618
     13  O         17.4000    1.3860   15.1640 O.2   152  THR152     -0.2717
     14  CB        14.3500    1.7550   15.2570 C.3   152  THR152      0.1784
     15  OG1       14.8340    2.8380   14.4970 O.3   152  THR152     -0.2211
     16  CG2       12.9990    2.1120   15.8730 C.3   152  THR152      0.0376
     17  N         16.6650   -0.5000   16.1280 N.am  153  GLY153     -0.1956
     18  CA        17.7360   -1.3580   15.5520 C.3   153  GLY153      0.1869
     19  C         19.1210   -0.8120   15.8670 C.2   153  GLY153      0.2309
     20  O         19.4120   -0.5050   17.0460 O.2   153  GLY153     -0.2863
     21  N         13.4900    0.0910   20.0520 N.3   185  GLY185     -0.1210
     22  CA        12.5940   -0.7210   19.1990 C.3   185  GLY185      0.1956
     23  C         13.3870   -1.7780   18.4060 C.2   185  GLY185      0.2612
     24  O         14.2440   -1.4190   17.6090 O.2   185  GLY185     -0.2717
     25  N         13.1400   -3.0620   18.6650 N.am  186  VAL186     -0.1966
     26  CA        13.7550   -4.1810   17.9290 C.3   186  VAL186      0.1712
     27  C         12.6500   -5.1880   17.5550 C.2   186  VAL186      0.2458
     28  O         11.5840   -5.0560   18.0970 O.2   186  VAL186     -0.2730
     29  CB        14.8060   -4.8450   18.7720 C.3   186  VAL186      0.0289
     30  CG1       15.9570   -3.8810   18.9030 C.3   186  VAL186      0.0023
     31  CG2       14.2570   -5.2560   20.1400 C.3   186  VAL186      0.0023
     32  N         12.8520   -6.1550   16.6320 N.am  187  PRO187     -0.2727
     33  CA        11.7370   -7.0690   16.2240 C.3   187  PRO187      0.1402
     34  C         11.4780   -8.2630   17.1630 C.2   187  PRO187      0.2269
     35  O         10.3290   -8.6650   17.4580 O.2   187  PRO187     -0.2865
     36  CB        12.1700   -7.5780   14.8380 C.3   187  PRO187      0.0296
     37  CG        13.6800   -7.4900   14.8710 C.3   187  PRO187      0.0237
     38  CD        13.9950   -6.2290   15.6820 C.3   187  PRO187      0.0939
     39  N          8.6060   -5.3390   18.6520 N.3   216  SER216     -0.1202
     40  CA         7.6050   -5.2850   17.6270 C.3   216  SER216      0.2020
     41  C          6.8770   -6.5880   17.2760 C.2   216  SER216      0.2618
     42  O          5.6780   -6.5650   17.0180 O.2   216  SER216     -0.2717
     43  CB         8.1260   -4.5570   16.4050 C.3   216  SER216      0.2103
     44  OG         9.0100   -5.4220   15.7150 O.3   216  SER216     -0.2182
     45  N          7.5740   -7.7120   17.1550 N.am  217  ARG217     -0.1979
     46  CA         6.8890   -8.9240   16.7060 C.3   217  ARG217      0.1597
     47  C          6.4460   -9.7930   17.8250 C.2   217  ARG217      0.2287
     48  O          6.0280  -10.9120   17.5660 O.2   217  ARG217     -0.2864
     49  CB         7.7100   -9.7600   15.7120 C.3   217  ARG217      0.0334
     50  CG         8.4340   -8.8440   14.7270 C.3   217  ARG217      0.0492
     51  CD         8.9000   -9.4850   13.4240 C.3   217  ARG217      0.2205
     52  NE         9.3040   -8.4430   12.4870 N.pl3 217  ARG217     -0.0865
     53  CZ        10.0210   -8.6460   11.4000 C.cat 217  ARG217      0.5346
     54  NH1       10.4140   -9.8840   11.0230 N.pl3 217  ARG217      0.1354
     55  NH2       10.3220   -7.5950   10.6450 N.pl3 217  ARG217      0.1354
     56  N          0.8080   -3.6810   17.1370 N.3   226  LYS226     -0.1245
     57  CA         2.2530   -3.9940   17.1700 C.3   226  LYS226      0.1561
     58  C          3.0540   -3.0030   18.0010 C.2   226  LYS226      0.2260
     59  O          2.9220   -1.8180   17.7710 O.2   226  LYS226     -0.2867
     60  CB         2.8470   -4.0080   15.7750 C.3   226  LYS226      0.0271
     61  CG         3.5390   -5.3220   15.4260 C.3   226  LYS226      0.0035
     62  CD         3.8650   -5.4060   13.9340 C.3   226  LYS226      0.0206
     63  CE         5.1990   -6.0520   13.5690 C.3   226  LYS226      0.1093
     64  NZ         5.7170   -5.5560   12.2800 N.3   226  LYS226     -0.1314
     65  N          5.5930   -0.8200   18.4230 N.3   228  TYR228     -0.1227
     66  CA         6.6520   -0.0030   17.9100 C.3   228  TYR228      0.1736
     67  C          7.0400    0.9460   19.0250 C.2   228  TYR228      0.2595
     68  O          6.3210    1.1180   19.9920 O.2   228  TYR228     -0.2718
     69  CB         6.2180    0.9110   16.8070 C.3   228  TYR228      0.0548
     70  CG         6.1490    0.1110   15.5460 C.ar  228  TYR228     -0.0200
     71  CD1        6.9290   -1.0340   15.4350 C.ar  228  TYR228     -0.0009
     72  CD2        5.2880    0.4440   14.5050 C.ar  228  TYR228     -0.0009
     73  CE1        6.9140   -1.8000   14.2750 C.ar  228  TYR228      0.0417
     74  CE2        5.2460   -0.3280   13.3450 C.ar  228  TYR228      0.0417
     75  CZ         6.0710   -1.4440   13.2270 C.ar  228  TYR228      0.1957
     76  OH         6.0510   -2.2200   12.0960 O.3   228  TYR228     -0.2866
     77  N          8.1820    1.5550   18.8610 N.am  229  ILE229     -0.1966
     78  CA         8.6860    2.4730   19.8400 C.3   229  ILE229      0.1727
     79  C          7.6730    3.5400   20.1760 C.2   229  ILE229      0.2616
     80  O          7.4720    3.8080   21.3430 O.2   229  ILE229     -0.2715
     81  CB        10.0930    3.0070   19.4880 C.3   229  ILE229      0.0290
     82  CG1       10.7710    3.8310   20.5630 C.3   229  ILE229      0.0022
     83  CG2       10.1340    3.8060   18.2000 C.3   229  ILE229      0.0023
     84  CD1       12.1180    4.3270   20.0640 C.3   229  ILE229      0.0001
     85  N          7.0010    4.1070   19.1780 N.am  230  GLN230     -0.1977
     86  CA         5.9960    5.1420   19.4350 C.3   230  GLN230      0.1601
     87  C          4.8340    4.5390   20.2130 C.2   230  GLN230      0.2287
     88  O          4.1880    5.1810   21.0420 O.2   230  GLN230     -0.2864
     89  CB         5.5550    5.9040   18.1700 C.3   230  GLN230      0.0394
     90  CG         4.9420    4.9300   17.1300 C.3   230  GLN230      0.0908
     91  CD         5.9070    4.3980   16.0610 C.2   230  GLN230      0.2608
     92  OE1        7.0620    4.1280   16.3490 O.2   230  GLN230     -0.2717
     93  NE2        5.4310    4.1540   14.8320 N.am  230  GLN230     -0.0878
     94  N         15.9340    3.9400   11.9640 N.3   256  LEU256     -0.1245
     95  CA        15.1380    4.0420   10.6930 C.3   256  LEU256      0.1561
     96  C         14.3710    5.3700   10.5110 C.2   256  LEU256      0.2260
     97  O         13.6110    5.7600   11.3850 O.2   256  LEU256     -0.2867
     98  CB        14.0420    2.9450   10.5780 C.3   256  LEU256      0.0270
     99  CG        14.5350    1.5050   10.5560 C.3   256  LEU256      0.0019
    100  CD1       15.4410    1.1740   11.7580 C.3   256  LEU256      0.0001
    101  CD2       13.3510    0.5410   10.5560 C.3   256  LEU256      0.0001
    102  N         11.8130    5.7910    9.0770 N.3   258  GLY258     -0.1210
    103  CA        10.4410    5.5840    9.3830 C.3   258  GLY258      0.1956
    104  C         10.0090    5.9830   10.7930 C.2   258  GLY258      0.2611
    105  O          8.8840    6.4340   11.0140 O.2   258  GLY258     -0.2717
    106  N         10.8470    5.7770   11.7890 N.am  259  MET259     -0.1979
    107  CA        10.3940    6.0710   13.1390 C.3   259  MET259      0.1605
    108  C         10.0580    7.5300   13.3190 C.2   259  MET259      0.2287
    109  O          9.2890    7.9400   14.2110 O.2   259  MET259     -0.2864
    110  CB        11.4600    5.7050   14.1940 C.3   259  MET259      0.0413
    111  CG        12.7060    6.5570   13.9920 C.3   259  MET259      0.0598
    112  SD        14.0860    6.1220   15.1330 S.3   259  MET259     -0.1393
    113  CE        13.2150    5.8040   16.6750 C.3   259  MET259      0.0692
    114  N          6.2660    8.2390   12.8090 N.3   262  GLY262     -0.1225
    115  CA         5.4350    7.6310   13.7960 C.3   262  GLY262      0.1811
    116  C          5.4490    8.4240   15.0730 C.2   262  GLY262      0.2280
    117  O          4.4700    8.5380   15.7680 O.2   262  GLY262     -0.2866
@<TRIPOS>BOND
     1     4     3    2
     2     3     2    1
     3   102   103    1
     4     9     8    1
     5   103   104    1
     6     7     6    1
     7     7     8    1
     8     6     5    1
     9     5     2    1
    10     2     1    1
    11    96    95    1
    12    96    97    2
    13   101    99    1
    14    99    98    1
    15    99   100    1
    16    98    95    1
    17    55    53    1
    18    95    94    1
    19   104   105    2
    20   104   106   am
    21    54    53    1
    22    53    52    2
    23   106   107    1
    24    76    75    1
    25    64    63    1
    26    52    51    1
    27   114   115    1
    28   107   108    1
    29   107   110    1
    30    75    74   ar
    31    75    73   ar
    32   108   109    2
    33    74    72   ar
    34    51    50    1
    35    63    62    1
    36   115   116    1
    37    62    61    1
    38   111   110    1
    39   111   112    1
    40    73    71   ar
    41    15    14    1
    42    72    70   ar
    43    50    49    1
    44    93    91   am
    45    36    37    1
    46    36    33    1
    47    37    38    1
    48   116   117    2
    49   112   113    1
    50    13    12    2
    51    14    16    1
    52    14    11    1
    53    61    60    1
    54    71    70   ar
    55    70    69    1
    56    18    19    1
    57    18    17    1
    58    38    32    1
    59    49    46    1
    60    44    43    1
    61    60    57    1
    62    12    17   am
    63    12    11    1
    64    19    20    2
    65    91    92    2
    66    91    90    1
    67    33    32    1
    68    33    34    1
    69    43    40    1
    70    11    10    1
    71    32    27   am
    72    46    45    1
    73    46    47    1
    74    69    66    1
    75    42    41    2
    76    90    89    1
    77    56    57    1
    78    45    41   am
    79    34    35    2
    80    57    58    1
    81    41    40    1
    82    27    26    1
    83    27    28    2
    84    48    47    2
    85    24    23    2
    86    40    39    1
    87    59    58    2
    88    66    65    1
    89    66    67    1
    90    26    25    1
    91    26    29    1
    92    89    86    1
    93    83    81    1
    94    23    25   am
    95    23    22    1
    96    29    30    1
    97    29    31    1
    98    77    67   am
    99    77    78    1
   100    67    68    2
   101    85    86    1
   102    85    79   am
   103    22    21    1
   104    86    87    1
   105    81    78    1
   106    81    82    1
   107    78    79    1
   108    84    82    1
   109    79    80    2
   110    87    88    2
