@<TRIPOS>MOLECULE
tmp/1fnnB00.pdb
 193 187 0 0 0
SMALL
GASTEIGER

@<TRIPOS>ATOM
      1  N         55.8920   18.4770    4.9000 N.3    10  SER10      -0.1203
      2  CA        55.2670   17.1620    4.8600 C.3    10  SER10       0.2005
      3  C         54.9130   16.7390    3.4450 C.2    10  SER10       0.2460
      4  O         54.4640   17.5090    2.5740 O.2    10  SER10      -0.2732
      5  CB        53.9290   17.2550    5.6660 C.3    10  SER10       0.2103
      6  OG        53.2260   16.0550    5.3600 O.3    10  SER10      -0.2182
      7  N         55.0060   15.4540    3.1360 N.am   11  PRO11      -0.2728
      8  CA        54.6460   14.8580    1.8640 C.3    11  PRO11       0.1401
      9  C         53.2080   15.1020    1.4570 C.2    11  PRO11       0.2269
     10  O         52.8350   15.2180    0.2860 O.2    11  PRO11      -0.2865
     11  CB        54.8490   13.3390    2.0670 C.3    11  PRO11       0.0296
     12  CG        55.9470   13.3170    3.0780 C.3    11  PRO11       0.0237
     13  CD        55.5680   14.4190    4.0710 C.3    11  PRO11       0.0939
     14  N         51.5510   17.8800    2.1210 N.3    13  TYR13      -0.1241
     15  CA        51.1670   19.2530    1.8680 C.3    13  TYR13       0.1605
     16  C         51.0010   19.5530    0.3750 C.2    13  TYR13       0.2264
     17  O         51.7730   19.1500   -0.5160 O.2    13  TYR13      -0.2867
     18  CB        52.2280   20.1610    2.4360 C.3    13  TYR13       0.0534
     19  CG        52.1170   21.6570    2.3130 C.ar   13  TYR13      -0.0201
     20  CD1       51.3650   22.3610    3.2390 C.ar   13  TYR13      -0.0009
     21  CD2       52.7540   22.3620    1.3070 C.ar   13  TYR13      -0.0009
     22  CE1       51.2360   23.7380    3.1850 C.ar   13  TYR13       0.0417
     23  CE2       52.6310   23.7430    1.2400 C.ar   13  TYR13       0.0417
     24  CZ        51.8780   24.4170    2.1730 C.ar   13  TYR13       0.1957
     25  OH        51.7600   25.7910    2.0980 O.3    13  TYR13      -0.2866
     26  N         50.7960   22.7470   -1.9290 N.3    15  PRO15      -0.2116
     27  CA        51.0110   24.1870   -1.9150 C.3    15  PRO15       0.1372
     28  C         49.9090   24.9100   -2.6610 C.2    15  PRO15       0.2244
     29  O         49.2500   24.4020   -3.5840 O.2    15  PRO15      -0.2868
     30  CB        52.3690   24.3800   -2.5920 C.3    15  PRO15       0.0268
     31  CG        52.8500   23.0410   -2.9680 C.3    15  PRO15       0.0207
     32  CD        51.6880   22.0800   -2.8830 C.3    15  PRO15       0.0892
     33  N         50.6150   27.1910   -4.9920 N.3    17  ARG17      -0.1231
     34  CA        50.9030   27.1520   -6.3980 C.3    17  ARG17       0.1694
     35  C         51.8440   25.9920   -6.7030 C.2    17  ARG17       0.2592
     36  O         52.6030   25.5570   -5.8570 O.2    17  ARG17      -0.2718
     37  CB        51.6500   28.3900   -6.9370 C.3    17  ARG17       0.0321
     38  CG        51.0200   29.7180   -6.6020 C.3    17  ARG17       0.0489
     39  CD        51.1630   30.7040   -7.7450 C.3    17  ARG17       0.2205
     40  NE        52.4710   30.8520   -8.3450 N.pl3  17  ARG17      -0.0865
     41  CZ        53.0190   30.3560   -9.4390 C.cat  17  ARG17       0.5346
     42  NH1       52.3710   29.5400  -10.2660 N.pl3  17  ARG17       0.1354
     43  NH2       54.2690   30.6720   -9.7490 N.pl3  17  ARG17       0.1354
     44  N         51.8530   25.6050   -7.9380 N.am   18  LEU18      -0.1966
     45  CA        52.7130   24.5620   -8.4900 C.3    18  LEU18       0.1713
     46  C         53.4270   25.1740   -9.7080 C.2    18  LEU18       0.2458
     47  O         53.2020   24.8990  -10.8750 O.2    18  LEU18      -0.2730
     48  CB        51.8850   23.3630   -8.8750 C.3    18  LEU18       0.0310
     49  CG        51.1310   22.5390   -7.8370 C.3    18  LEU18       0.0022
     50  CD1       50.4020   21.3840   -8.5420 C.3    18  LEU18       0.0001
     51  CD2       52.0920   21.9970   -6.7870 C.3    18  LEU18       0.0001
     52  N         54.5170   25.9140   -9.4090 N.am   19  PRO19      -0.2727
     53  CA        55.2710   26.5590  -10.4860 C.3    19  PRO19       0.1402
     54  C         55.7730   25.4700  -11.3760 C.2    19  PRO19       0.2269
     55  O         56.2860   24.4290  -10.9370 O.2    19  PRO19      -0.2865
     56  CB        56.3290   27.4010   -9.7340 C.3    19  PRO19       0.0296
     57  CG        56.4700   26.7240   -8.3920 C.3    19  PRO19       0.0237
     58  CD        55.0330   26.2740   -8.0740 C.3    19  PRO19       0.0939
     59  N         54.2950   23.5650  -13.3450 N.3    21  ARG21      -0.1245
     60  CA        53.3040   22.5160  -13.6560 C.3    21  ARG21       0.1563
     61  C         52.0200   23.1090  -14.2080 C.2    21  ARG21       0.2260
     62  O         50.9820   22.4150  -14.2950 O.2    21  ARG21      -0.2867
     63  CB        53.0150   21.6810  -12.4070 C.3    21  ARG21       0.0307
     64  CG        54.1710   20.7370  -11.9960 C.3    21  ARG21       0.0489
     65  CD        54.5460   19.9270  -13.2060 C.3    21  ARG21       0.2205
     66  NE        55.6160   18.9690  -13.1080 N.pl3  21  ARG21      -0.0865
     67  CZ        56.6580   19.0110  -13.9360 C.cat  21  ARG21       0.5346
     68  NH1       56.7230   19.9490  -14.8640 N.pl3  21  ARG21       0.1354
     69  NH2       57.6070   18.1090  -13.8060 N.pl3  21  ARG21       0.1354
     70  N         60.1930    9.7270  -10.3190 N.3    52  PRO52      -0.2102
     71  CA        59.7960   10.0410   -8.9630 C.3    52  PRO52       0.1504
     72  C         60.0880   11.4970   -8.6150 C.2    52  PRO52       0.2576
     73  O         61.0900   12.0620   -9.0740 O.2    52  PRO52      -0.2718
     74  CB        60.6090    9.0860   -8.0910 C.3    52  PRO52       0.0282
     75  CG        60.9550    7.9530   -9.0050 C.3    52  PRO52       0.0208
     76  CD        61.0940    8.5320  -10.3770 C.3    52  PRO52       0.0893
     77  N         59.0770   12.1880   -8.0720 N.am   53  GLY53      -0.1943
     78  CA        59.2670   13.5290   -7.5770 C.3    53  GLY53       0.2014
     79  C         59.1450   14.6050   -8.6550 C.2    53  GLY53       0.2640
     80  O         59.4630   15.7750   -8.3780 O.2    53  GLY53      -0.2714
     81  N         58.3910   14.3130   -9.7170 N.am   54  THR54      -0.1936
     82  CA        58.1790   15.2490  -10.7990 C.3    54  THR54       0.2028
     83  C         56.8170   15.9140  -10.6710 C.2    54  THR54       0.2643
     84  O         56.4300   16.6590  -11.5350 O.2    54  THR54      -0.2714
     85  CB        58.3520   14.5880  -12.1900 C.3    54  THR54       0.1808
     86  OG1       57.6540   13.3380  -12.2460 O.3    54  THR54      -0.2208
     87  CG2       59.8610   14.3500  -12.3240 C.3    54  THR54       0.0379
     88  N         56.1360   15.7140   -9.5330 N.am   55  GLY55      -0.1939
     89  CA        54.8700   16.4030   -9.2980 C.3    55  GLY55       0.2014
     90  C         53.6470   15.6880   -9.9080 C.2    55  GLY55       0.2639
     91  O         52.6030   16.3170   -9.8840 O.2    55  GLY55      -0.2714
     92  N         53.6950   14.3920  -10.1610 N.am   56  LYS56      -0.1963
     93  CA        52.5030   13.7360  -10.7260 C.3    56  LYS56       0.1728
     94  C         51.3310   13.7050   -9.7560 C.2    56  LYS56       0.2617
     95  O         50.2070   14.1440  -10.0300 O.2    56  LYS56      -0.2715
     96  CB        52.8820   12.3010  -11.1320 C.3    56  LYS56       0.0311
     97  CG        53.9980   12.2360  -12.1530 C.3    56  LYS56       0.0038
     98  CD        54.2600   10.7920  -12.5830 C.3    56  LYS56       0.0206
     99  CE        54.8550    9.9750  -11.4450 C.3    56  LYS56       0.1093
    100  NZ        56.2140   10.4940  -11.0520 N.3    56  LYS56      -0.1314
    101  N         51.6420   13.2340   -8.5250 N.am   57  THR57      -0.1937
    102  CA        50.6090   13.1250   -7.5030 C.3    57  THR57       0.2028
    103  C         50.1120   14.4550   -7.0370 C.2    57  THR57       0.2642
    104  O         48.8930   14.6830   -6.9620 O.2    57  THR57      -0.2714
    105  CB        51.0620   12.3240   -6.2510 C.3    57  THR57       0.1808
    106  OG1       51.3810   11.0260   -6.7730 O.3    57  THR57      -0.2208
    107  CG2       50.0360   12.2600   -5.1310 C.3    57  THR57       0.0379
    108  N         51.0550   15.4120   -6.8420 N.am   58  VAL58      -0.1977
    109  CA        50.5150   16.6670   -6.2980 C.3    58  VAL58       0.1596
    110  C         49.6800   17.4060   -7.3580 C.2    58  VAL58       0.2287
    111  O         48.7980   18.1640   -6.9540 O.2    58  VAL58      -0.2864
    112  CB        51.5900   17.5970   -5.7400 C.3    58  VAL58       0.0276
    113  CG1       52.4610   18.1840   -6.8430 C.3    58  VAL58       0.0022
    114  CG2       50.9250   18.7290   -4.9400 C.3    58  VAL58       0.0022
    115  N         47.3280    5.4860   -8.8750 N.3   131  ASP131     -0.1225
    116  CA        48.6640    6.0680   -8.7410 C.3   131  ASP131      0.1805
    117  C         49.7020    4.9700   -8.5630 C.2   131  ASP131      0.2597
    118  O         49.4220    3.8040   -8.1940 O.2   131  ASP131     -0.2718
    119  CB        48.6910    7.0360   -7.5540 C.3   131  ASP131      0.1424
    120  CG        49.7310    8.1510   -7.7340 C.2   131  ASP131      0.3668
    121  OD1       50.5720    8.0470   -8.6330 O.co2 131  ASP131     -0.2456
    122  OD2       49.6400    9.1030   -6.9320 O.co2 131  ASP131     -0.2456
    123  N         50.9430    5.2550   -8.9510 N.am  132  ASP132     -0.1974
    124  CA        52.0170    4.2790   -8.9540 C.3   132  ASP132      0.1709
    125  C         51.4870    2.9460   -9.4830 C.2   132  ASP132      0.2293
    126  O         51.7020    1.8710   -8.9090 O.2   132  ASP132     -0.2864
    127  CB        52.6400    4.1060   -7.5630 C.3   132  ASP132      0.1436
    128  CG        53.2400    5.4380   -7.1030 C.2   132  ASP132      0.3671
    129  OD1       53.6990    6.2220   -7.9580 O.co2 132  ASP132     -0.2456
    130  OD2       53.2390    5.6950   -5.8860 O.co2 132  ASP132     -0.2456
    131  N         62.5650   18.0660  -13.0480 N.3   192  TYR192     -0.1241
    132  CA        62.6740   19.5090  -12.8740 C.3   192  TYR192      0.1605
    133  C         64.1320   19.9550  -13.1400 C.2   192  TYR192      0.2264
    134  O         65.0700   19.2570  -12.7200 O.2   192  TYR192     -0.2867
    135  CB        62.2780   19.8570  -11.4310 C.3   192  TYR192      0.0534
    136  CG        60.7800   19.7790  -11.1500 C.ar  192  TYR192     -0.0201
    137  CD1       60.2560   18.8410  -10.2650 C.ar  192  TYR192     -0.0009
    138  CD2       59.9160   20.6740  -11.7990 C.ar  192  TYR192     -0.0009
    139  CE1       58.8830   18.7950  -10.0260 C.ar  192  TYR192      0.0417
    140  CE2       58.5560   20.6430  -11.5770 C.ar  192  TYR192      0.0417
    141  CZ        58.0650   19.6880  -10.6820 C.ar  192  TYR192      0.1957
    142  OH        56.7140   19.6650  -10.4660 O.3   192  TYR192     -0.2866
    143  N         60.5730   26.1180   -6.7020 N.3   200  ILE200     -0.1245
    144  CA        59.7670   25.2750   -5.7580 C.3   200  ILE200      0.1561
    145  C         60.2280   25.4280   -4.3250 C.2   200  ILE200      0.2260
    146  O         59.4350   25.6480   -3.3700 O.2   200  ILE200     -0.2867
    147  CB        59.8690   23.8180   -6.2420 C.3   200  ILE200      0.0252
    148  CG1       59.0440   23.6510   -7.5360 C.3   200  ILE200      0.0019
    149  CG2       59.3150   22.8530   -5.1540 C.3   200  ILE200      0.0019
    150  CD1       59.3490   22.2500   -8.1150 C.3   200  ILE200      0.0001
    151  N         59.2640   28.8910   -2.6910 N.3   203  ASP203     -0.1225
    152  CA        57.9050   28.8750   -2.1420 C.3   203  ASP203      0.1805
    153  C         57.8350   28.1600   -0.7940 C.2   203  ASP203      0.2597
    154  O         57.1660   28.6430    0.1430 O.2   203  ASP203     -0.2718
    155  CB        56.8940   28.1820   -3.0820 C.3   203  ASP203      0.1424
    156  CG        56.4910   29.0920   -4.2260 C.2   203  ASP203      0.3668
    157  OD1       56.8370   30.2850   -4.1970 O.co2 203  ASP203     -0.2456
    158  OD2       55.8310   28.6630   -5.1830 O.co2 203  ASP203     -0.2456
    159  N         58.4500   26.9970   -0.6360 N.am  204  ARG204     -0.1979
    160  CA        58.4290   26.2910    0.6540 C.3   204  ARG204      0.1597
    161  C         59.1590   27.0820    1.7420 C.2   204  ARG204      0.2287
    162  O         58.7230   27.1310    2.9060 O.2   204  ARG204     -0.2864
    163  CB        59.0790   24.9140    0.5780 C.3   204  ARG204      0.0334
    164  CG        58.5030   23.8940   -0.3960 C.3   204  ARG204      0.0492
    165  CD        57.0610   23.5180    0.0180 C.3   204  ARG204      0.2205
    166  NE        56.4180   22.8560   -1.1410 N.pl3 204  ARG204     -0.0865
    167  CZ        55.8620   21.6470   -1.0670 C.cat 204  ARG204      0.5346
    168  NH1       55.8440   20.9560    0.0590 N.pl3 204  ARG204      0.1354
    169  NH2       55.3050   21.1140   -2.1480 N.pl3 204  ARG204      0.1354
    170  N         61.7590   16.7850   -7.0040 N.3   239  ALA239     -0.1231
    171  CA        61.4550   17.8210   -6.0170 C.3   239  ALA239      0.1694
    172  C         61.2280   17.2850   -4.6090 C.2   239  ALA239      0.2591
    173  O         61.4090   18.0190   -3.6370 O.2   239  ALA239     -0.2718
    174  CB        60.1990   18.5790   -6.4930 C.3   239  ALA239      0.0304
    175  N         60.8190   16.0260   -4.4820 N.am  240  ARG240     -0.1980
    176  CA        60.6890   15.4680   -3.0970 C.3   240  ARG240      0.1597
    177  C         62.0520   15.4090   -2.3960 C.2   240  ARG240      0.2287
    178  O         62.1810   15.7910   -1.2430 O.2   240  ARG240     -0.2864
    179  CB        60.1720   14.0340   -3.1990 C.3   240  ARG240      0.0334
    180  CG        60.3880   13.3740   -1.8370 C.3   240  ARG240      0.0492
    181  CD        59.7910   12.0060   -1.7110 C.3   240  ARG240      0.2205
    182  NE        60.7310   10.8980   -2.0100 N.pl3 240  ARG240     -0.0865
    183  CZ        62.0730   10.7090   -1.8670 C.cat 240  ARG240      0.5346
    184  NH1       62.9420   11.6090   -1.4200 N.pl3 240  ARG240      0.1354
    185  NH2       62.6230    9.5020   -2.1470 N.pl3 240  ARG240      0.1354
    186  N         63.0340   19.1230   -1.4350 N.3   243  ILE243     -0.1245
    187  CA        62.3160   19.6500   -0.2680 C.3   243  ILE243      0.1561
    188  C         62.8050   18.9350    1.0000 C.2   243  ILE243      0.2260
    189  O         62.9190   19.5800    2.0500 O.2   243  ILE243     -0.2867
    190  CB        60.8000   19.4750   -0.4540 C.3   243  ILE243      0.0252
    191  CG1       60.3400   20.4710   -1.5830 C.3   243  ILE243      0.0019
    192  CG2       60.0610   19.7650    0.8370 C.3   243  ILE243      0.0019
    193  CD1       58.9760   20.0390   -2.1340 C.3   243  ILE243      0.0001
@<TRIPOS>BOND
     1    68    67    1
     2    62    61    2
     3    61    60    1
     4    67    69    1
     5    67    66    2
     6    60    59    1
     7    60    63    1
     8    65    66    1
     9    65    64    1
    10   133   132    1
    11   133   134    2
    12   131   132    1
    13   132   135    1
    14    98    97    1
    15    98    99    1
    16    63    64    1
    17    87    85    1
    18    86    85    1
    19    85    82    1
    20    97    96    1
    21   138   140   ar
    22   138   136   ar
    23   140   141   ar
    24    84    83    2
    25    99   100    1
    26   135   136    1
    27    54    55    2
    28    54    53    1
    29   136   137   ar
    30    96    93    1
    31    47    46    2
    32    82    83    1
    33    82    81    1
    34    93    92    1
    35    93    94    1
    36   141   142    1
    37   141   139   ar
    38    83    88   am
    39    53    56    1
    40    53    52    1
    41    76    70    1
    42    76    75    1
    43    70    71    1
    44    42    41    1
    45   137   139   ar
    46    92    90   am
    47    95    94    2
    48    90    91    2
    49    90    89    1
    50    94   101   am
    51    43    41    1
    52    56    57    1
    53    81    79   am
    54    46    52   am
    55    46    45    1
    56    88    89    1
    57   125   124    1
    58   125   126    2
    59    41    40    2
    60    52    58    1
    61    73    72    2
    62    75    74    1
    63    71    72    1
    64    71    74    1
    65   124   123    1
    66   124   127    1
    67   123   117   am
    68   115   116    1
    69    48    45    1
    70    48    49    1
    71   116   117    1
    72   116   119    1
    73    79    80    2
    74    79    78    1
    75   121   120   ar
    76    72    77   am
    77   117   118    2
    78    50    49    1
    79   101   102    1
    80    45    44    1
    81    57    58    1
    82    40    39    1
    83   150   148    1
    84    77    78    1
    85   129   128   ar
    86    44    35   am
    87    49    51    1
    88    39    38    1
    89   120   119    1
    90   120   122   ar
    91   127   128    1
    92   148   147    1
    93   102   103    1
    94   102   105    1
    95   110   111    2
    96   110   109    1
    97   128   130   ar
    98   103   104    2
    99   103   108   am
   100   170   171    1
   101    37    38    1
   102    37    34    1
   103   113   112    1
   104   108   109    1
   105   106   105    1
   106    35    34    1
   107    35    36    2
   108   143   144    1
   109   174   171    1
   110    34    33    1
   111   109   112    1
   112   105   107    1
   113   147   144    1
   114   147   149    1
   115   171   172    1
   116   144   145    1
   117   112   114    1
   118   158   156   ar
   119   172   175   am
   120   172   173    2
   121   175   176    1
   122   145   146    2
   123   156   157   ar
   124   156   155    1
   125    29    28    2
   126   179   176    1
   127   179   180    1
   128   176   177    1
   129   155   152    1
   130    31    32    1
   131    31    30    1
   132    32    26    1
   133   151   152    1
   134    28    27    1
   135    30    27    1
   136   177   178    2
   137   169   167    1
   138   185   183    1
   139   152   153    1
   140   193   191    1
   141   182   183    2
   142   182   181    1
   143    26    27    1
   144   183   184    1
   145   180   181    1
   146   191   190    1
   147   186   187    1
   148   166   167    2
   149   166   165    1
   150   167   168    1
   151   153   159   am
   152   153   154    2
   153   159   160    1
   154    17    16    2
   155   190   187    1
   156   190   192    1
   157   164   165    1
   158   164   163    1
   159   187   188    1
   160    10     9    2
   161    16    15    1
   162   163   160    1
   163   160   161    1
   164   188   189    2
   165    23    21   ar
   166    23    24   ar
   167    21    19   ar
   168     9     8    1
   169   161   162    2
   170     8    11    1
   171     8     7    1
   172    15    14    1
   173    15    18    1
   174    11    12    1
   175    25    24    1
   176    24    22   ar
   177    19    18    1
   178    19    20   ar
   179     4     3    2
   180    12    13    1
   181     7     3   am
   182     7    13    1
   183    22    20   ar
   184     3     2    1
   185     2     1    1
   186     2     5    1
   187     6     5    1
