@<TRIPOS>MOLECULE
tmp/1fnpB00.pdb
 105 104 0 0 0
SMALL
GASTEIGER

@<TRIPOS>ATOM
      1  N         41.1470   83.6260   19.8130 N.3   144  HIS144     -0.1241
      2  CA        39.8230   84.0520   20.2390 C.3   144  HIS144      0.1621
      3  C         39.7260   84.2700   21.7360 C.2   144  HIS144      0.2264
      4  O         39.1980   85.2870   22.1840 O.2   144  HIS144     -0.2867
      5  CB        38.7780   83.0220   19.8060 C.3   144  HIS144      0.0745
      6  CG        38.7030   82.8370   18.3280 C.ar  144  HIS144      0.0817
      7  ND1       39.6900   82.1920   17.6140 N.ar  144  HIS144     -0.2268
      8  CD2       37.8590   83.3620   17.4110 C.ar  144  HIS144      0.1154
      9  CE1       39.4690   82.3480   16.3220 C.ar  144  HIS144      0.1986
     10  NE2       38.3650   83.0570   16.1710 N.ar  144  HIS144     -0.2212
     11  N         41.3490   87.4930   22.7450 N.3   147  TRP147     -0.1227
     12  CA        40.5700   88.6750   22.3710 C.3   147  TRP147      0.1737
     13  C         39.3430   88.8920   23.2570 C.2   147  TRP147      0.2595
     14  O         39.1240   89.9930   23.7600 O.2   147  TRP147     -0.2718
     15  CB        40.1370   88.6030   20.9100 C.3   147  TRP147      0.0564
     16  CG        41.2670   88.6890   19.9310 C.ar  147  TRP147      0.0003
     17  CD1       41.3120   88.1120   18.6940 C.ar  147  TRP147      0.0946
     18  CD2       42.5590   89.2910   20.1390 C.ar  147  TRP147      0.0152
     19  NE1       42.5520   88.2960   18.1260 N.ar  147  TRP147     -0.2442
     20  CE2       43.3380   89.0140   18.9900 C.ar  147  TRP147      0.0810
     21  CE3       43.1430   90.0180   21.1930 C.ar  147  TRP147      0.0012
     22  CZ2       44.6740   89.4350   18.8630 C.ar  147  TRP147      0.0191
     23  CZ3       44.4790   90.4360   21.0690 C.ar  147  TRP147      0.0001
     24  CH2       45.2250   90.1400   19.9100 C.ar  147  TRP147      0.0015
     25  N         38.5570   87.8410   23.4650 N.am  148  ALA148     -0.1980
     26  CA        37.4130   87.9300   24.3590 C.3   148  ALA148      0.1597
     27  C         37.8230   88.4000   25.7600 C.2   148  ALA148      0.2287
     28  O         37.1270   89.2060   26.3740 O.2   148  ALA148     -0.2864
     29  CB        36.6990   86.5830   24.4310 C.3   148  ALA148      0.0319
     30  N         40.4730   90.2550   26.4550 N.3   150  LEU150     -0.1231
     31  CA        40.8120   91.6680   26.3390 C.3   150  LEU150      0.1693
     32  C         39.6000   92.5900   26.6190 C.2   150  LEU150      0.2592
     33  O         39.7350   93.6090   27.2960 O.2   150  LEU150     -0.2718
     34  CB        41.3990   91.9510   24.9520 C.3   150  LEU150      0.0284
     35  CG        42.0730   93.3150   24.7470 C.3   150  LEU150      0.0019
     36  CD1       43.2960   93.4260   25.6440 C.3   150  LEU150      0.0001
     37  CD2       42.4590   93.4930   23.2800 C.3   150  LEU150      0.0001
     38  N         38.4080   92.1400   26.2210 N.am  151  SER151     -0.1952
     39  CA        37.1550   92.8640   26.4420 C.3   151  SER151      0.1924
     40  C         36.7960   93.0220   27.9180 C.2   151  SER151      0.2314
     41  O         36.2940   94.0740   28.3270 O.2   151  SER151     -0.2863
     42  CB        36.0050   92.1610   25.7110 C.3   151  SER151      0.2116
     43  OG        34.7830   92.8800   25.8560 O.3   151  SER151     -0.2180
     44  N         39.1720   95.4230   29.3950 N.3   154  TRP154     -0.1241
     45  CA        38.7940   96.7920   29.0480 C.3   154  TRP154      0.1605
     46  C         38.0000   97.4940   30.1640 C.2   154  TRP154      0.2264
     47  O         38.4660   98.4970   30.7030 O.2   154  TRP154     -0.2867
     48  CB        38.0120   96.7870   27.7200 C.3   154  TRP154      0.0550
     49  CG        37.3080   98.0820   27.3420 C.ar  154  TRP154      0.0003
     50  CD1       35.9690   98.2410   27.0810 C.ar  154  TRP154      0.0946
     51  CD2       37.9170   99.3550   27.0840 C.ar  154  TRP154      0.0152
     52  NE1       35.7150   99.5250   26.6680 N.ar  154  TRP154     -0.2442
     53  CE2       36.8910  100.2310   26.6630 C.ar  154  TRP154      0.0810
     54  CE3       39.2270   99.8420   27.1720 C.ar  154  TRP154      0.0012
     55  CZ2       37.1400  101.5720   26.3260 C.ar  154  TRP154      0.0191
     56  CZ3       39.4730  101.1740   26.8410 C.ar  154  TRP154      0.0001
     57  CH2       38.4340  102.0210   26.4230 C.ar  154  TRP154      0.0015
     58  N         29.9130   82.2260   17.0710 N.3   266  ARG266     -0.1245
     59  CA        30.2280   83.6180   16.7680 C.3   266  ARG266      0.1563
     60  C         29.2010   84.5730   17.3900 C.2   266  ARG266      0.2260
     61  O         29.5710   85.5870   18.0090 O.2   266  ARG266     -0.2867
     62  CB        30.2820   83.8150   15.2630 C.3   266  ARG266      0.0307
     63  CG        31.2950   82.9210   14.6070 C.3   266  ARG266      0.0489
     64  CD        31.5660   83.3100   13.1810 C.3   266  ARG266      0.2205
     65  NE        32.6820   82.5400   12.6320 N.pl3 266  ARG266     -0.0865
     66  CZ        33.9660   82.8440   12.8190 C.cat 266  ARG266      0.5346
     67  NH1       34.9120   82.0650   12.2990 N.pl3 266  ARG266      0.1354
     68  NH2       34.3060   83.9320   13.5100 N.pl3 266  ARG266      0.1354
     69  N         30.2330   84.3790   21.1850 N.3   269  ILE269     -0.1231
     70  CA        31.3990   85.0680   21.6800 C.3   269  ILE269      0.1692
     71  C         31.1540   86.5660   21.6510 C.2   269  ILE269      0.2592
     72  O         31.5760   87.2670   22.5740 O.2   269  ILE269     -0.2718
     73  CB        32.6980   84.7130   20.8950 C.3   269  ILE269      0.0266
     74  CG1       33.9210   85.1870   21.7040 C.3   269  ILE269      0.0019
     75  CG2       32.6730   85.3260   19.4890 C.3   269  ILE269      0.0020
     76  CD1       35.2060   85.3150   20.9130 C.3   269  ILE269      0.0001
     77  N         30.3670   87.0320   20.6770 N.am  270  TRP270     -0.1976
     78  CA        30.0900   88.4730   20.5520 C.3   270  TRP270      0.1640
     79  C         29.0780   89.0110   21.5690 C.2   270  TRP270      0.2290
     80  O         29.3570   89.9990   22.2520 O.2   270  TRP270     -0.2864
     81  CB        29.6270   88.8310   19.1380 C.3   270  TRP270      0.0576
     82  CG        30.7500   89.0050   18.1670 C.ar  270  TRP270      0.0006
     83  CD1       31.0650   88.1770   17.1310 C.ar  270  TRP270      0.0946
     84  CD2       31.7240   90.0590   18.1500 C.ar  270  TRP270      0.0152
     85  NE1       32.1740   88.6480   16.4690 N.ar  270  TRP270     -0.2442
     86  CE2       32.5980   89.8020   17.0720 C.ar  270  TRP270      0.0810
     87  CE3       31.9480   91.1920   18.9450 C.ar  270  TRP270      0.0012
     88  CZ2       33.6750   90.6410   16.7590 C.ar  270  TRP270      0.0191
     89  CZ3       33.0310   92.0220   18.6410 C.ar  270  TRP270      0.0001
     90  CH2       33.8760   91.7410   17.5520 C.ar  270  TRP270      0.0015
     91  N         30.9970   89.3960   24.6100 N.3   273  VAL273     -0.1245
     92  CA        32.0840   90.3590   24.5100 C.3   273  VAL273      0.1561
     93  C         31.5560   91.7920   24.5940 C.2   273  VAL273      0.2260
     94  O         32.2070   92.6640   25.1970 O.2   273  VAL273     -0.2867
     95  CB        32.8780   90.1520   23.1830 C.3   273  VAL273      0.0252
     96  CG1       33.5580   91.4380   22.7410 C.3   273  VAL273      0.0019
     97  CG2       33.9110   89.0580   23.3770 C.3   273  VAL273      0.0019
     98  N         32.3280   95.6200   26.6050 N.3   277  LEU277     -0.1245
     99  CA        32.8220   96.5750   25.6180 C.3   277  LEU277      0.1561
    100  C         32.0500   97.9020   25.7050 C.2   277  LEU277      0.2260
    101  O         32.6290   98.9620   25.9840 O.2   277  LEU277     -0.2867
    102  CB        32.7070   95.9880   24.2090 C.3   277  LEU277      0.0270
    103  CG        33.1690   96.9150   23.0730 C.3   277  LEU277      0.0019
    104  CD1       34.6380   97.3320   23.2770 C.3   277  LEU277      0.0001
    105  CD2       32.9870   96.2050   21.7330 C.3   277  LEU277      0.0001
@<TRIPOS>BOND
     1    67    66    1
     2    65    66    2
     3    65    64    1
     4    66    68    1
     5    64    63    1
     6    63    62    1
     7    62    59    1
     8    10     9   ar
     9    10     8   ar
    10     9     7   ar
    11    85    86   ar
    12    85    83   ar
    13    88    86   ar
    14    88    90   ar
    15    59    58    1
    16    59    60    1
    17    86    84   ar
    18    83    82   ar
    19    60    61    2
    20     8     6   ar
    21    90    89   ar
    22     7     6   ar
    23    19    17   ar
    24    19    20   ar
    25    84    82   ar
    26    84    87   ar
    27    82    81    1
    28     6     5    1
    29    89    87   ar
    30    17    16   ar
    31    22    20   ar
    32    22    24   ar
    33    20    18   ar
    34    81    78    1
    35    75    73    1
    36     5     2    1
    37     1     2    1
    38    24    23   ar
    39    16    18   ar
    40    16    15    1
    41    18    21   ar
    42     2     3    1
    43    78    77    1
    44    78    79    1
    45    77    71   am
    46    73    70    1
    47    73    74    1
    48    15    12    1
    49    76    74    1
    50    23    21   ar
    51    69    70    1
    52    79    80    2
    53    71    70    1
    54    71    72    2
    55   105   103    1
    56     3     4    2
    57    12    11    1
    58    12    13    1
    59    96    95    1
    60   103   104    1
    61   103   102    1
    62    95    97    1
    63    95    92    1
    64    13    25   am
    65    13    14    2
    66    37    35    1
    67    25    26    1
    68   102    99    1
    69    26    29    1
    70    26    27    1
    71    92    93    1
    72    92    91    1
    73    93    94    2
    74    35    34    1
    75    35    36    1
    76    34    31    1
    77    99   100    1
    78    99    98    1
    79   100   101    2
    80    42    43    1
    81    42    39    1
    82    27    28    2
    83    38    39    1
    84    38    32   am
    85    55    57   ar
    86    55    53   ar
    87    31    30    1
    88    31    32    1
    89    57    56   ar
    90    39    40    1
    91    32    33    2
    92    53    52   ar
    93    53    51   ar
    94    52    50   ar
    95    56    54   ar
    96    50    49   ar
    97    51    54   ar
    98    51    49   ar
    99    49    48    1
   100    48    45    1
   101    40    41    2
   102    45    44    1
   103    45    46    1
   104    46    47    2
