@<TRIPOS>MOLECULE
tmp/1fnzA00.pdb
 102 99 0 0 0
SMALL
GASTEIGER

@<TRIPOS>ATOM
      1  N         72.5090  -21.4050   28.7530 N.3    86  ALA86      -0.1231
      2  CA        71.2430  -21.9480   29.2510 C.3    86  ALA86       0.1694
      3  C         71.4150  -22.3470   30.7220 C.2    86  ALA86       0.2592
      4  O         72.5060  -22.7310   31.1280 O.2    86  ALA86      -0.2718
      5  CB        70.8100  -23.1570   28.4210 C.3    86  ALA86       0.0304
      6  N         70.3520  -22.2410   31.5220 N.am   87  ASP87      -0.1974
      7  CA        69.0460  -21.7660   31.0570 C.3    87  ASP87       0.1709
      8  C         68.6550  -20.4340   31.6770 C.2    87  ASP87       0.2293
      9  O         67.9680  -19.6310   31.0480 O.2    87  ASP87      -0.2864
     10  CB        67.9700  -22.8010   31.3730 C.3    87  ASP87       0.1436
     11  CG        67.7250  -23.7490   30.2180 C.2    87  ASP87       0.3671
     12  OD1       67.1650  -23.2930   29.1990 O.co2  87  ASP87      -0.2456
     13  OD2       68.1060  -24.9310   30.3260 O.co2  87  ASP87      -0.2456
     14  N         63.9960  -29.4790   35.3590 N.3   103  LEU103     -0.1231
     15  CA        65.2980  -28.9690   34.9220 C.3   103  LEU103      0.1693
     16  C         65.1780  -28.0910   33.6810 C.2   103  LEU103      0.2593
     17  O         64.0830  -27.8450   33.1800 O.2   103  LEU103     -0.2718
     18  CB        66.2200  -30.1410   34.5770 C.3   103  LEU103      0.0284
     19  CG        66.5180  -31.1800   35.6630 C.3   103  LEU103      0.0019
     20  CD1       67.1380  -32.4200   35.0320 C.3   103  LEU103      0.0001
     21  CD2       67.4450  -30.5820   36.6980 C.3   103  LEU103      0.0001
     22  N         66.3300  -27.6370   33.1960 N.am  104  GLY104     -0.1942
     23  CA        66.3910  -26.8240   31.9950 C.3   104  GLY104      0.2014
     24  C         65.4940  -25.6050   31.9050 C.2   104  GLY104      0.2639
     25  O         65.4540  -24.7680   32.8110 O.2   104  GLY104     -0.2714
     26  N         64.7790  -25.5090   30.7860 N.am  105  GLY105     -0.1939
     27  CA        63.8850  -24.3900   30.5440 C.3   105  GLY105      0.2014
     28  C         62.8740  -24.1040   31.6410 C.2   105  GLY105      0.2638
     29  O         62.3500  -22.9930   31.7260 O.2   105  GLY105     -0.2714
     30  N         62.5940  -25.0940   32.4820 N.am  106  MET106     -0.1976
     31  CA        61.6340  -24.9110   33.5630 C.3   106  MET106      0.1605
     32  C         62.2390  -24.1620   34.7590 C.2   106  MET106      0.2287
     33  O         61.5390  -23.8420   35.7250 O.2   106  MET106     -0.2864
     34  CB        61.0750  -26.2680   33.9930 C.3   106  MET106      0.0413
     35  CG        60.2180  -26.9390   32.9190 C.3   106  MET106      0.0598
     36  SD        58.8650  -25.8750   32.3560 S.3   106  MET106     -0.1393
     37  CE        57.5530  -26.4380   33.3780 C.3   106  MET106      0.0692
     38  N         68.2060  -18.3440   27.6120 N.3   126  PHE126     -0.1241
     39  CA        67.9360  -19.2000   26.4570 C.3   126  PHE126      0.1605
     40  C         66.4540  -19.1500   26.0950 C.2   126  PHE126      0.2264
     41  O         65.5950  -19.4360   26.9310 O.2   126  PHE126     -0.2867
     42  CB        68.3470  -20.6400   26.7700 C.3   126  PHE126      0.0534
     43  CG        68.1170  -21.5980   25.6360 C.ar  126  PHE126     -0.0203
     44  CD1       66.8520  -22.1280   25.3940 C.ar  126  PHE126     -0.0042
     45  CD2       69.1660  -21.9540   24.7930 C.ar  126  PHE126     -0.0042
     46  CE1       66.6360  -22.9990   24.3250 C.ar  126  PHE126     -0.0003
     47  CE2       68.9630  -22.8200   23.7240 C.ar  126  PHE126     -0.0003
     48  CZ        67.6950  -23.3450   23.4880 C.ar  126  PHE126     -0.0000
     49  N         63.1650  -20.5160   24.7080 N.3   128  ASN128     -0.1240
     50  CA        62.4880  -21.7570   24.3570 C.3   128  ASN128      0.1653
     51  C         61.3710  -21.4140   23.3690 C.2   128  ASN128      0.2266
     52  O         60.4060  -20.7290   23.7140 O.2   128  ASN128     -0.2867
     53  CB        61.9140  -22.4380   25.6060 C.3   128  ASN128      0.1155
     54  CG        62.9970  -22.9010   26.5710 C.2   128  ASN128      0.2627
     55  OD1       63.5710  -22.1030   27.3110 O.2   128  ASN128     -0.2716
     56  ND2       63.2890  -24.1960   26.5550 N.am  128  ASN128     -0.0877
     57  N         57.4590  -21.0880   24.2440 N.3   131  TRP131     -0.1241
     58  CA        56.8600  -20.1560   25.1980 C.3   131  TRP131      0.1605
     59  C         57.7040  -18.9160   25.4990 C.2   131  TRP131      0.2264
     60  O         57.3220  -18.0840   26.3200 O.2   131  TRP131     -0.2867
     61  CB        56.5480  -20.9000   26.5070 C.3   131  TRP131      0.0550
     62  CG        57.7570  -21.5210   27.1700 C.ar  131  TRP131      0.0003
     63  CD1       58.7890  -20.8620   27.7780 C.ar  131  TRP131      0.0946
     64  CD2       58.0600  -22.9210   27.2780 C.ar  131  TRP131      0.0152
     65  NE1       59.7130  -21.7620   28.2590 N.ar  131  TRP131     -0.2442
     66  CE2       59.2910  -23.0320   27.9670 C.ar  131  TRP131      0.0810
     67  CE3       57.4090  -24.0920   26.8630 C.ar  131  TRP131      0.0012
     68  CZ2       59.8870  -24.2690   28.2480 C.ar  131  TRP131      0.0191
     69  CZ3       58.0050  -25.3250   27.1430 C.ar  131  TRP131      0.0001
     70  CH2       59.2300  -25.4000   27.8310 C.ar  131  TRP131      0.0015
     71  N         71.6900  -25.7580   30.8490 N.3   212  GLY212     -0.1210
     72  CA        71.0790  -26.4510   29.7300 C.3   212  GLY212      0.1956
     73  C         71.0980  -27.9660   29.7910 C.2   212  GLY212      0.2612
     74  O         71.9110  -28.5750   30.4870 O.2   212  GLY212     -0.2717
     75  N         70.1840  -28.5810   29.0520 N.am  213  ILE213     -0.1965
     76  CA        70.1050  -30.0340   29.0030 C.3   213  ILE213      0.1727
     77  C         71.0480  -30.5890   27.9450 C.2   213  ILE213      0.2616
     78  O         71.5910  -31.6750   28.1020 O.2   213  ILE213     -0.2715
     79  CB        68.6700  -30.4940   28.6970 C.3   213  ILE213      0.0290
     80  CG1       67.7790  -30.1980   29.9060 C.3   213  ILE213      0.0022
     81  CG2       68.6490  -31.9790   28.3540 C.3   213  ILE213      0.0023
     82  CD1       66.3220  -30.5170   29.6790 C.3   213  ILE213      0.0001
     83  N         71.2480  -29.8310   26.8710 N.am  214  ASP214     -0.1971
     84  CA        72.1250  -30.2520   25.7790 C.3   214  ASP214      0.1709
     85  C         73.5760  -29.8310   26.0190 C.2   214  ASP214      0.2293
     86  O         73.8420  -28.7450   26.5350 O.2   214  ASP214     -0.2864
     87  CB        71.6360  -29.6440   24.4670 C.3   214  ASP214      0.1436
     88  CG        70.2190  -30.0590   24.1280 C.2   214  ASP214      0.3671
     89  OD1       69.5800  -29.3760   23.2990 O.co2 214  ASP214     -0.2456
     90  OD2       69.7470  -31.0750   24.6840 O.co2 214  ASP214     -0.2456
     91  N         75.5520  -26.0530   26.2040 N.3   217  TYR217     -0.1241
     92  CA        74.6740  -25.0020   26.7210 C.3   217  TYR217      0.1605
     93  C         74.7530  -24.9180   28.2430 C.2   217  TYR217      0.2264
     94  O         73.8100  -25.2760   28.9560 O.2   217  TYR217     -0.2867
     95  CB        73.2350  -25.2680   26.2630 C.3   217  TYR217      0.0534
     96  CG        72.9920  -24.9050   24.8100 C.ar  217  TYR217     -0.0201
     97  CD1       72.4930  -23.6490   24.4590 C.ar  217  TYR217     -0.0009
     98  CD2       73.3110  -25.7950   23.7830 C.ar  217  TYR217     -0.0009
     99  CE1       72.3210  -23.2870   23.1230 C.ar  217  TYR217      0.0417
    100  CE2       73.1440  -25.4450   22.4420 C.ar  217  TYR217      0.0417
    101  CZ        72.6510  -24.1890   22.1210 C.ar  217  TYR217      0.1957
    102  OH        72.4990  -23.8190   20.8040 O.3   217  TYR217     -0.2866
@<TRIPOS>BOND
     1   102   101    1
     2   101   100   ar
     3   101    99   ar
     4   100    98   ar
     5    99    97   ar
     6    89    88   ar
     7    51    52    2
     8    51    50    1
     9    48    47   ar
    10    48    46   ar
    11    47    45   ar
    12    98    96   ar
    13    88    87    1
    14    88    90   ar
    15    57    58    1
    16    46    44   ar
    17    50    49    1
    18    50    53    1
    19    97    96   ar
    20    87    84    1
    21    45    43   ar
    22    96    95    1
    23    58    59    1
    24    58    61    1
    25    44    43   ar
    26    59    60    2
    27    53    54    1
    28    43    42    1
    29    84    85    1
    30    84    83    1
    31    85    86    2
    32    40    39    1
    33    40    41    2
    34    91    92    1
    35    95    92    1
    36    39    42    1
    37    39    38    1
    38    61    62    1
    39    56    54   am
    40    54    55    2
    41    92    93    1
    42    67    69   ar
    43    67    64   ar
    44    83    77   am
    45    69    70   ar
    46    62    64   ar
    47    62    63   ar
    48    64    66   ar
    49    63    65   ar
    50    70    68   ar
    51    77    78    2
    52    77    76    1
    53    66    68   ar
    54    66    65   ar
    55    93    94    2
    56    81    79    1
    57     5     2    1
    58    79    76    1
    59    79    80    1
    60     1     2    1
    61    76    75    1
    62    75    73   am
    63    12    11   ar
    64     2     3    1
    65    82    80    1
    66    72    73    1
    67    72    71    1
    68    73    74    2
    69    11    13   ar
    70    11    10    1
    71    27    26    1
    72    27    28    1
    73     3     4    2
    74     3     6   am
    75    26    24   am
    76     9     8    2
    77     7    10    1
    78     7     6    1
    79     7     8    1
    80    28    29    2
    81    28    30   am
    82    24    23    1
    83    24    25    2
    84    23    22    1
    85    36    35    1
    86    36    37    1
    87    30    31    1
    88    35    34    1
    89    17    16    2
    90    22    16   am
    91    31    34    1
    92    31    32    1
    93    16    15    1
    94    18    15    1
    95    18    19    1
    96    32    33    2
    97    15    14    1
    98    20    19    1
    99    19    21    1
