@<TRIPOS>MOLECULE
tmp/1fo2A00.pdb
 133 127 0 0 0
SMALL
GASTEIGER

@<TRIPOS>ATOM
      1  N         36.2620   39.1830   36.5360 N.3    90  PHE90      -0.1227
      2  CA        35.9980   38.7740   35.1560 C.3    90  PHE90       0.1736
      3  C         37.2480   38.6370   34.2790 C.2    90  PHE90       0.2595
      4  O         37.4720   37.5770   33.6760 O.2    90  PHE90      -0.2718
      5  CB        34.9840   39.7520   34.5320 C.3    90  PHE90       0.0547
      6  CG        34.8970   39.6870   33.0310 C.ar   90  PHE90      -0.0202
      7  CD1       35.5210   40.6490   32.2450 C.ar   90  PHE90      -0.0042
      8  CD2       34.1710   38.6840   32.4040 C.ar   90  PHE90      -0.0042
      9  CE1       35.4200   40.6190   30.8590 C.ar   90  PHE90      -0.0003
     10  CE2       34.0670   38.6470   31.0160 C.ar   90  PHE90      -0.0003
     11  CZ        34.6890   39.6150   30.2440 C.ar   90  PHE90      -0.0000
     12  N         38.0590   39.6930   34.2100 N.am   91  GLU91      -0.1979
     13  CA        39.2700   39.6690   33.3960 C.3    91  GLU91       0.1602
     14  C         40.2330   38.5550   33.8200 C.2    91  GLU91       0.2287
     15  O         40.8830   37.9350   32.9800 O.2    91  GLU91      -0.2864
     16  CB        39.9890   41.0220   33.4720 C.3    91  GLU91       0.0415
     17  CG        39.2520   42.1870   32.8170 C.3    91  GLU91       0.1163
     18  CD        39.0370   42.0100   31.3150 C.2    91  GLU91       0.3649
     19  OE1       39.8150   41.2800   30.6600 O.co2  91  GLU91      -0.2457
     20  OE2       38.0920   42.6230   30.7780 O.co2  91  GLU91      -0.2457
     21  N         38.6030   34.8660   32.7390 N.3    94  ILE94      -0.1231
     22  CA        38.6890   34.5240   31.3330 C.3    94  ILE94       0.1692
     23  C         40.1100   34.3830   30.7950 C.2    94  ILE94       0.2591
     24  O         40.3460   33.5560   29.9130 O.2    94  ILE94      -0.2718
     25  CB        37.9160   35.5400   30.4720 C.3    94  ILE94       0.0266
     26  CG1       38.5850   36.9150   30.5380 C.3    94  ILE94       0.0019
     27  CG2       36.4760   35.6350   30.9660 C.3    94  ILE94       0.0020
     28  CD1       37.9020   37.9770   29.6690 C.3    94  ILE94       0.0001
     29  N         41.0560   35.1620   31.3210 N.am   95  ARG95      -0.1980
     30  CA        42.4270   35.0900   30.8400 C.3    95  ARG95       0.1597
     31  C         43.2990   34.1240   31.6330 C.2    95  ARG95       0.2287
     32  O         43.8770   33.1950   31.0630 O.2    95  ARG95      -0.2864
     33  CB        43.0790   36.4870   30.8460 C.3    95  ARG95       0.0334
     34  CG        42.2220   37.5850   30.2060 C.3    95  ARG95       0.0492
     35  CD        43.0230   38.8240   29.7990 C.3    95  ARG95       0.2205
     36  NE        42.1380   39.9470   29.4670 N.pl3  95  ARG95      -0.0865
     37  CZ        42.5300   41.0770   28.8820 C.cat  95  ARG95       0.5346
     38  NH1       43.8000   41.2540   28.5470 N.pl3  95  ARG95       0.1354
     39  NH2       41.6560   42.0430   28.6440 N.pl3  95  ARG95       0.1354
     40  N         27.5950   41.9990   26.3010 N.3   222  ASP222     -0.1225
     41  CA        27.9810   41.0520   25.2590 C.3   222  ASP222      0.1805
     42  C         28.1240   39.5760   25.6530 C.2   222  ASP222      0.2598
     43  O         27.2720   38.7530   25.3060 O.2   222  ASP222     -0.2718
     44  CB        29.2770   41.5210   24.5750 C.3   222  ASP222      0.1424
     45  CG        30.4000   41.7910   25.5600 C.2   222  ASP222      0.3668
     46  OD1       30.2090   41.5350   26.7690 O.co2 222  ASP222     -0.2456
     47  OD2       31.4730   42.2620   25.1280 O.co2 222  ASP222     -0.2456
     48  N         29.1870   39.2350   26.3730 N.am  223  SER223     -0.1952
     49  CA        29.4250   37.8430   26.7470 C.3   223  SER223      0.1924
     50  C         28.3280   37.1720   27.5760 C.2   223  SER223      0.2314
     51  O         28.2800   35.9450   27.6660 O.2   223  SER223     -0.2863
     52  CB        30.7900   37.6960   27.4320 C.3   223  SER223      0.2116
     53  OG        31.0230   38.7150   28.3780 O.3   223  SER223     -0.2180
     54  N         33.0620   44.9840   19.5520 N.3   284  LEU284     -0.1245
     55  CA        32.7990   43.9260   20.5260 C.3   284  LEU284      0.1561
     56  C         31.6000   43.0820   20.1220 C.2   284  LEU284      0.2260
     57  O         31.6110   41.8590   20.2870 O.2   284  LEU284     -0.2867
     58  CB        32.5250   44.5440   21.9030 C.3   284  LEU284      0.0270
     59  CG        33.5720   44.5470   23.0210 C.3   284  LEU284      0.0019
     60  CD1       34.9580   44.8620   22.4980 C.3   284  LEU284      0.0001
     61  CD2       33.1510   45.5730   24.0590 C.3   284  LEU284      0.0001
     62  N         41.6370   43.7410   18.3440 N.3   356  ARG356     -0.1231
     63  CA        40.5760   42.8740   18.8560 C.3   356  ARG356      0.1679
     64  C         40.3060   41.6940   17.9180 C.2   356  ARG356      0.2434
     65  O         40.5360   41.7780   16.7090 O.2   356  ARG356     -0.2733
     66  CB        39.3030   43.6820   19.1040 C.3   356  ARG356      0.0321
     67  CG        39.4420   44.6830   20.2380 C.3   356  ARG356      0.0489
     68  CD        38.1440   45.3910   20.4840 C.3   356  ARG356      0.2205
     69  NE        38.2380   46.4600   21.4750 N.pl3 356  ARG356     -0.0865
     70  CZ        38.4440   46.2710   22.7760 C.cat 356  ARG356      0.5346
     71  NH1       38.5830   45.0420   23.2590 N.pl3 356  ARG356      0.1354
     72  NH2       38.4870   47.3150   23.5960 N.pl3 356  ARG356      0.1354
     73  N         39.8020   40.5780   18.4730 N.am  357  PRO357     -0.2718
     74  CA        39.5050   39.3500   17.7260 C.3   357  PRO357      0.1535
     75  C         38.0820   39.0680   17.2400 C.2   357  PRO357      0.2598
     76  O         37.8890   38.2050   16.3820 O.2   357  PRO357     -0.2715
     77  CB        39.9480   38.2780   18.7010 C.3   357  PRO357      0.0310
     78  CG        39.3780   38.8260   19.9900 C.3   357  PRO357      0.0237
     79  CD        39.7110   40.3240   19.9280 C.3   357  PRO357      0.0939
     80  N         37.1000   39.7700   17.7830 N.am  358  GLU358     -0.1978
     81  CA        35.7090   39.5050   17.4250 C.3   358  GLU358      0.1602
     82  C         35.3860   39.1730   15.9730 C.2   358  GLU358      0.2287
     83  O         34.6040   38.2530   15.7170 O.2   358  GLU358     -0.2864
     84  CB        34.8090   40.6470   17.9020 C.3   358  GLU358      0.0415
     85  CG        34.7080   40.7350   19.4210 C.3   358  GLU358      0.1163
     86  CD        35.9560   41.3270   20.0500 C.2   358  GLU358      0.3649
     87  OE1       36.1530   41.1120   21.2530 O.co2 358  GLU358     -0.2457
     88  OE2       36.7320   42.0080   19.3450 O.co2 358  GLU358     -0.2457
     89  N         37.1550   35.9600   14.9810 N.3   361  GLU361     -0.1245
     90  CA        36.5740   34.9380   15.8440 C.3   361  GLU361      0.1567
     91  C         35.3200   34.3810   15.1700 C.2   361  GLU361      0.2260
     92  O         35.1340   33.1710   15.0570 O.2   361  GLU361     -0.2867
     93  CB        36.1930   35.5490   17.1960 C.3   361  GLU361      0.0388
     94  CG        35.2470   34.6840   18.0230 C.3   361  GLU361      0.1160
     95  CD        34.8190   35.3430   19.3240 C.2   361  GLU361      0.3649
     96  OE1       33.9870   34.7550   20.0410 O.co2 361  GLU361     -0.2457
     97  OE2       35.3170   36.4420   19.6350 O.co2 361  GLU361     -0.2457
     98  N         44.9550   39.6400   24.4330 N.3   418  PHE418     -0.1241
     99  CA        44.0050   38.9390   23.5880 C.3   418  PHE418      0.1605
    100  C         44.4180   38.8460   22.1270 C.2   418  PHE418      0.2264
    101  O         43.7940   38.1170   21.3520 O.2   418  PHE418     -0.2867
    102  CB        42.5840   39.5260   23.7210 C.3   418  PHE418      0.0534
    103  CG        42.4970   41.0200   23.5480 C.ar  418  PHE418     -0.0203
    104  CD1       42.7130   41.6130   22.3070 C.ar  418  PHE418     -0.0042
    105  CD2       42.1390   41.8270   24.6290 C.ar  418  PHE418     -0.0042
    106  CE1       42.5670   42.9890   22.1380 C.ar  418  PHE418     -0.0003
    107  CE2       41.9900   43.2100   24.4760 C.ar  418  PHE418     -0.0003
    108  CZ        42.2050   43.7930   23.2240 C.ar  418  PHE418     -0.0000
    109  N         43.7340   35.3020   21.4460 N.3   422  GLU422     -0.1245
    110  CA        42.5280   35.1490   20.6290 C.3   422  GLU422      0.1567
    111  C         42.6700   35.3630   19.1410 C.2   422  GLU422      0.2260
    112  O         42.4800   34.4410   18.3540 O.2   422  GLU422     -0.2867
    113  CB        41.4450   36.1050   21.1120 C.3   422  GLU422      0.0388
    114  CG        40.9930   35.8940   22.5340 C.3   422  GLU422      0.1160
    115  CD        39.6940   36.6090   22.8020 C.2   422  GLU422      0.3649
    116  OE1       39.6780   37.5150   23.6590 O.co2 422  GLU422     -0.2457
    117  OE2       38.7040   36.2670   22.1330 O.co2 422  GLU422     -0.2457
    118  N         35.2680   32.9980   26.6850 N.3   447  THR447     -0.1203
    119  CA        35.2380   34.2840   26.0030 C.3   447  THR447      0.1994
    120  C         36.6170   34.8640   25.6710 C.2   447  THR447      0.2617
    121  O         36.7160   35.9180   25.0590 O.2   447  THR447     -0.2717
    122  CB        34.3430   35.3050   26.7900 C.3   447  THR447      0.1784
    123  OG1       33.8890   36.3220   25.8870 O.3   447  THR447     -0.2211
    124  CG2       35.0980   35.9550   27.9260 C.3   447  THR447      0.0376
    125  N         37.6830   34.1620   26.0480 N.am  448  GLU448     -0.1979
    126  CA        39.0350   34.6310   25.7420 C.3   448  GLU448      0.1602
    127  C         39.7490   33.5920   24.8760 C.2   448  GLU448      0.2287
    128  O         40.9410   33.3840   24.9860 O.2   448  GLU448     -0.2864
    129  CB        39.8220   34.8890   27.0290 C.3   448  GLU448      0.0415
    130  CG        41.1850   35.5630   26.8330 C.3   448  GLU448      0.1163
    131  CD        41.1520   37.0990   26.8790 C.2   448  GLU448      0.3649
    132  OE1       40.1000   37.6970   27.1570 O.co2 448  GLU448     -0.2457
    133  OE2       42.2150   37.7130   26.6410 O.co2 448  GLU448     -0.2457
@<TRIPOS>BOND
     1    89    90    1
     2    92    91    2
     3    91    90    1
     4    83    82    2
     5    90    93    1
     6    82    81    1
     7    76    75    2
     8    65    64    2
     9    93    94    1
    10    75    74    1
    11    75    80   am
    12    81    80    1
    13    81    84    1
    14    74    73    1
    15    74    77    1
    16    84    85    1
    17    64    73   am
    18    64    63    1
    19    94    95    1
    20    62    63    1
    21   112   111    2
    22    73    79    1
    23    77    78    1
    24    63    66    1
    25    66    67    1
    26   111   110    1
    27    95    97   ar
    28    95    96   ar
    29    88    86   ar
    30    85    86    1
    31    54    55    1
    32    79    78    1
    33    86    87   ar
    34    56    57    2
    35    56    55    1
    36    67    68    1
    37    68    69    1
    38    55    58    1
    39   110   113    1
    40   110   109    1
    41   113   114    1
    42   101   100    2
    43    69    70    2
    44    58    59    1
    45   100    99    1
    46   117   115   ar
    47   106   104   ar
    48   106   108   ar
    49   104   103   ar
    50    60    59    1
    51   114   115    1
    52    70    71    1
    53    70    72    1
    54   115   116   ar
    55    59    61    1
    56   108   107   ar
    57   103   102    1
    58   103   105   ar
    59    99   102    1
    60    99    98    1
    61   107   105   ar
    62    44    41    1
    63    44    45    1
    64   127   128    2
    65   127   126    1
    66   121   120    2
    67    47    45   ar
    68    41    42    1
    69    41    40    1
    70    43    42    2
    71    45    46   ar
    72    42    48   am
    73   120   119    1
    74   120   125   am
    75   126   125    1
    76   126   129    1
    77   123   122    1
    78   119   118    1
    79   119   122    1
    80    48    49    1
    81   133   131   ar
    82    49    52    1
    83    49    50    1
    84   122   124    1
    85   130   131    1
    86   130   129    1
    87   131   132   ar
    88    52    53    1
    89    50    51    2
    90    38    37    1
    91    39    37    1
    92    37    36    2
    93    36    35    1
    94    28    26    1
    95    35    34    1
    96    24    23    2
    97    34    33    1
    98    11     9   ar
    99    11    10   ar
   100    25    26    1
   101    25    27    1
   102    25    22    1
   103    19    18   ar
   104    20    18   ar
   105    23    29   am
   106    23    22    1
   107    30    33    1
   108    30    29    1
   109    30    31    1
   110     9     7   ar
   111    10     8   ar
   112    32    31    2
   113    18    17    1
   114    22    21    1
   115     7     6   ar
   116     8     6   ar
   117    17    16    1
   118    15    14    2
   119     6     5    1
   120    13    16    1
   121    13    14    1
   122    13    12    1
   123     4     3    2
   124    12     3   am
   125     3     2    1
   126     5     2    1
   127     2     1    1
