@<TRIPOS>MOLECULE
tmp/1fo3A00.pdb
 149 142 0 0 0
SMALL
GASTEIGER

@<TRIPOS>ATOM
      1  N         35.9670   39.1010   36.8820 N.3    89  PHE89      -0.1227
      2  CA        35.7090   38.7250   35.4950 C.3    89  PHE89       0.1736
      3  C         36.9510   38.6580   34.6140 C.2    89  PHE89       0.2595
      4  O         37.2200   37.6240   33.9990 O.2    89  PHE89      -0.2718
      5  CB        34.6630   39.6780   34.8900 C.3    89  PHE89       0.0547
      6  CG        34.6420   39.7040   33.3820 C.ar   89  PHE89      -0.0202
      7  CD1       35.2230   40.7590   32.6860 C.ar   89  PHE89      -0.0042
      8  CD2       34.0240   38.6880   32.6610 C.ar   89  PHE89      -0.0042
      9  CE1       35.1820   40.8070   31.2910 C.ar   89  PHE89      -0.0003
     10  CE2       33.9770   38.7270   31.2650 C.ar   89  PHE89      -0.0003
     11  CZ        34.5560   39.7870   30.5790 C.ar   89  PHE89      -0.0000
     12  N         37.7140   39.7480   34.5630 N.am   90  GLU90      -0.1979
     13  CA        38.9130   39.8000   33.7330 C.3    90  GLU90       0.1602
     14  C         39.9390   38.7220   34.0880 C.2    90  GLU90       0.2287
     15  O         40.5740   38.1420   33.2010 O.2    90  GLU90      -0.2864
     16  CB        39.5690   41.1840   33.8330 C.3    90  GLU90       0.0415
     17  CG        38.6880   42.3600   33.4000 C.3    90  GLU90       0.1163
     18  CD        38.4000   42.3880   31.9000 C.2    90  GLU90       0.3649
     19  OE1       39.0880   41.6830   31.1350 O.co2  90  GLU90      -0.2457
     20  OE2       37.4880   43.1330   31.4810 O.co2  90  GLU90      -0.2457
     21  N         38.3290   35.0110   33.0400 N.3    93  ILE93      -0.1231
     22  CA        38.3730   34.6520   31.6280 C.3    93  ILE93       0.1692
     23  C         39.7870   34.5310   31.0790 C.2    93  ILE93       0.2591
     24  O         40.0250   33.7500   30.1640 O.2    93  ILE93      -0.2718
     25  CB        37.5710   35.6520   30.7500 C.3    93  ILE93       0.0266
     26  CG1       38.2390   37.0320   30.7590 C.3    93  ILE93       0.0019
     27  CG2       36.1370   35.7280   31.2460 C.3    93  ILE93       0.0020
     28  CD1       37.5630   38.0450   29.8210 C.3    93  ILE93       0.0001
     29  N         40.7280   35.2870   31.6340 N.am   94  ARG94      -0.1980
     30  CA        42.0990   35.2210   31.1540 C.3    94  ARG94       0.1597
     31  C         42.9600   34.2020   31.8770 C.2    94  ARG94       0.2287
     32  O         43.4990   33.2780   31.2710 O.2    94  ARG94      -0.2864
     33  CB        42.7920   36.5750   31.2900 C.3    94  ARG94       0.0334
     34  CG        42.2850   37.6790   30.3860 C.3    94  ARG94       0.0492
     35  CD        43.2170   38.8760   30.5570 C.3    94  ARG94       0.2205
     36  NE        42.9320   39.9930   29.6660 N.pl3  94  ARG94      -0.0865
     37  CZ        41.7850   40.6570   29.6440 C.cat  94  ARG94       0.5346
     38  NH1       40.8140   40.2990   30.4590 N.pl3  94  ARG94       0.1354
     39  NH2       41.6320   41.7010   28.8380 N.pl3  94  ARG94       0.1354
     40  N         30.0090   46.5310   25.1090 N.3   218  ALA218     -0.1231
     41  CA        30.6820   46.5330   26.3980 C.3   218  ALA218      0.1694
     42  C         29.7060   46.4620   27.5740 C.2   218  ALA218      0.2591
     43  O         28.6590   47.1200   27.5680 O.2   218  ALA218     -0.2718
     44  CB        31.5610   47.7790   26.5240 C.3   218  ALA218      0.0304
     45  N         30.0570   45.6370   28.5610 N.am  219  ARG219     -0.1980
     46  CA        29.2790   45.4460   29.7870 C.3   219  ARG219      0.1597
     47  C         28.1380   44.4400   29.6890 C.2   219  ARG219      0.2287
     48  O         27.5420   44.0880   30.7020 O.2   219  ARG219     -0.2864
     49  CB        28.7070   46.7780   30.2870 C.3   219  ARG219      0.0334
     50  CG        29.6970   47.9260   30.3130 C.3   219  ARG219      0.0492
     51  CD        30.0870   48.3130   31.7240 C.3   219  ARG219      0.2205
     52  NE        30.5080   49.7090   31.7850 N.pl3 219  ARG219     -0.0865
     53  CZ        31.0080   50.2960   32.8660 C.cat 219  ARG219      0.5346
     54  NH1       31.1570   49.6070   33.9910 N.pl3 219  ARG219      0.1354
     55  NH2       31.3560   51.5770   32.8250 N.pl3 219  ARG219      0.1354
     56  N         27.8520   42.1140   26.3560 N.3   221  ASP221     -0.1225
     57  CA        28.1680   41.1150   25.3410 C.3   221  ASP221      0.1805
     58  C         28.2130   39.6410   25.7500 C.2   221  ASP221      0.2598
     59  O         27.3440   38.8660   25.3510 O.2   221  ASP221     -0.2718
     60  CB        29.4670   41.4870   24.6010 C.3   221  ASP221      0.1424
     61  CG        30.6770   41.6130   25.5220 C.2   221  ASP221      0.3668
     62  OD1       30.5510   41.4540   26.7540 O.co2 221  ASP221     -0.2456
     63  OD2       31.7750   41.8770   24.9890 O.co2 221  ASP221     -0.2456
     64  N         29.2010   39.2510   26.5470 N.am  222  SER222     -0.1952
     65  CA        29.3280   37.8440   26.9100 C.3   222  SER222      0.1924
     66  C         28.2030   37.2100   27.7320 C.2   222  SER222      0.2314
     67  O         28.1620   35.9910   27.8900 O.2   222  SER222     -0.2863
     68  CB        30.6970   37.5850   27.5630 C.3   222  SER222      0.2116
     69  OG        30.9630   38.4670   28.6250 O.3   222  SER222     -0.2180
     70  N         32.8080   45.0280   19.5580 N.3   283  LEU283     -0.1245
     71  CA        32.5540   43.9360   20.4980 C.3   283  LEU283      0.1561
     72  C         31.3260   43.1350   20.0820 C.2   283  LEU283      0.2260
     73  O         31.2700   41.9160   20.2760 O.2   283  LEU283     -0.2867
     74  CB        32.3370   44.4790   21.9150 C.3   283  LEU283      0.0270
     75  CG        33.5210   45.1470   22.6110 C.3   283  LEU283      0.0019
     76  CD1       33.0860   45.5990   23.9950 C.3   283  LEU283      0.0001
     77  CD2       34.6960   44.1650   22.7070 C.3   283  LEU283      0.0001
     78  N         41.5030   43.7570   18.4870 N.3   355  ARG355     -0.1231
     79  CA        40.4120   42.9170   18.9810 C.3   355  ARG355      0.1679
     80  C         40.0960   41.7270   18.0640 C.2   355  ARG355      0.2434
     81  O         40.2090   41.8140   16.8410 O.2   355  ARG355     -0.2733
     82  CB        39.1630   43.7630   19.2290 C.3   355  ARG355      0.0321
     83  CG        39.3060   44.7440   20.4000 C.3   355  ARG355      0.0489
     84  CD        38.0010   45.4770   20.6290 C.3   355  ARG355      0.2205
     85  NE        38.0940   46.5870   21.5770 N.pl3 355  ARG355     -0.0865
     86  CZ        38.1870   46.4600   22.8970 C.cat 355  ARG355      0.5346
     87  NH1       38.2110   45.2550   23.4620 N.pl3 355  ARG355      0.1354
     88  NH2       38.2220   47.5430   23.6630 N.pl3 355  ARG355      0.1354
     89  N         39.6630   40.6030   18.6600 N.am  356  PRO356     -0.2718
     90  CA        39.3250   39.3390   17.9910 C.3   356  PRO356      0.1535
     91  C         37.9450   39.0720   17.4110 C.2   356  PRO356      0.2598
     92  O         37.7870   38.1460   16.6140 O.2   356  PRO356     -0.2715
     93  CB        39.6310   38.3160   19.0780 C.3   356  PRO356      0.0310
     94  CG        39.0530   39.0190   20.2880 C.3   356  PRO356      0.0237
     95  CD        39.5670   40.4530   20.1260 C.3   356  PRO356      0.0939
     96  N         36.9550   39.8560   17.7970 N.am  357  GLU357     -0.1978
     97  CA        35.5860   39.5770   17.3770 C.3   357  GLU357      0.1602
     98  C         35.2540   39.2640   15.9220 C.2   357  GLU357      0.2287
     99  O         34.4230   38.3820   15.6700 O.2   357  GLU357     -0.2864
    100  CB        34.6460   40.6600   17.9110 C.3   357  GLU357      0.0415
    101  CG        34.5930   40.7040   19.4370 C.3   357  GLU357      0.1163
    102  CD        35.7510   41.4550   20.0540 C.2   357  GLU357      0.3649
    103  OE1       35.9570   41.3280   21.2780 O.co2 357  GLU357     -0.2457
    104  OE2       36.4500   42.1930   19.3270 O.co2 357  GLU357     -0.2457
    105  N         37.0180   35.9280   15.1210 N.3   360  GLU360     -0.1245
    106  CA        36.3870   34.9210   15.9740 C.3   360  GLU360      0.1567
    107  C         35.1270   34.4240   15.2640 C.2   360  GLU360      0.2260
    108  O         34.9050   33.2240   15.1110 O.2   360  GLU360     -0.2867
    109  CB        35.9990   35.5300   17.3310 C.3   360  GLU360      0.0388
    110  CG        35.0300   34.6790   18.1600 C.3   360  GLU360      0.1160
    111  CD        34.6230   35.3480   19.4680 C.2   360  GLU360      0.3649
    112  OE1       33.8430   34.7510   20.2330 O.co2 360  GLU360     -0.2457
    113  OE2       35.0880   36.4720   19.7340 O.co2 360  GLU360     -0.2457
    114  N         44.7540   39.7910   24.6120 N.3   417  PHE417     -0.1241
    115  CA        43.8600   39.0610   23.7220 C.3   417  PHE417      0.1605
    116  C         44.2840   38.9970   22.2550 C.2   417  PHE417      0.2264
    117  O         43.6620   38.2890   21.4680 O.2   417  PHE417     -0.2867
    118  CB        42.4060   39.5600   23.8480 C.3   417  PHE417      0.0534
    119  CG        42.2370   41.0570   23.7130 C.ar  417  PHE417     -0.0203
    120  CD1       42.4160   41.6870   22.4860 C.ar  417  PHE417     -0.0042
    121  CD2       41.8380   41.8170   24.8110 C.ar  417  PHE417     -0.0042
    122  CE1       42.1960   43.0590   22.3480 C.ar  417  PHE417     -0.0003
    123  CE2       41.6110   43.1930   24.6860 C.ar  417  PHE417     -0.0003
    124  CZ        41.7880   43.8110   23.4520 C.ar  417  PHE417     -0.0000
    125  N         43.5550   35.5410   21.7170 N.3   421  GLU421     -0.1245
    126  CA        42.3640   35.3630   20.8850 C.3   421  GLU421      0.1567
    127  C         42.5140   35.5480   19.3840 C.2   421  GLU421      0.2260
    128  O         42.2980   34.6260   18.5980 O.2   421  GLU421     -0.2867
    129  CB        41.2580   36.3120   21.3430 C.3   421  GLU421      0.0388
    130  CG        40.8760   36.2180   22.8110 C.3   421  GLU421      0.1160
    131  CD        39.4730   36.7420   23.0310 C.2   421  GLU421      0.3649
    132  OE1       39.3000   37.6480   23.8680 O.co2 421  GLU421     -0.2457
    133  OE2       38.5580   36.2470   22.3430 O.co2 421  GLU421     -0.2457
    134  N         35.0920   33.0770   26.7470 N.3   446  THR446     -0.1203
    135  CA        35.0650   34.3450   26.0320 C.3   446  THR446      0.1994
    136  C         36.4160   35.0010   25.7320 C.2   446  THR446      0.2617
    137  O         36.4800   36.0510   25.0810 O.2   446  THR446     -0.2717
    138  CB        34.0750   35.3380   26.7220 C.3   446  THR446      0.1784
    139  OG1       33.7280   36.3710   25.7920 O.3   446  THR446     -0.2211
    140  CG2       34.6720   35.9520   27.9640 C.3   446  THR446      0.0376
    141  N         37.5020   34.3620   26.1740 N.am  447  GLU447     -0.1979
    142  CA        38.8520   34.8580   25.9020 C.3   447  GLU447      0.1602
    143  C         39.5910   33.7710   25.0950 C.2   447  GLU447      0.2287
    144  O         40.7960   33.5800   25.2270 O.2   447  GLU447     -0.2864
    145  CB        39.5960   35.1870   27.2090 C.3   447  GLU447      0.0415
    146  CG        40.9620   35.8820   27.0300 C.3   447  GLU447      0.1163
    147  CD        40.9120   37.4120   27.0530 C.2   447  GLU447      0.3649
    148  OE1       39.8240   37.9860   27.2300 O.co2 447  GLU447     -0.2457
    149  OE2       41.9850   38.0450   26.9050 O.co2 447  GLU447     -0.2457
@<TRIPOS>BOND
     1   108   107    2
     2   105   106    1
     3   107   106    1
     4    99    98    2
     5    98    97    1
     6   106   109    1
     7    92    91    2
     8    81    80    2
     9   109   110    1
    10    97    96    1
    11    97   100    1
    12    91    96   am
    13    91    90    1
    14   100   101    1
    15    90    89    1
    16    90    93    1
    17    80    89   am
    18    80    79    1
    19   110   111    1
    20    78    79    1
    21   128   127    2
    22    89    95    1
    23    79    82    1
    24    93    94    1
    25    82    83    1
    26   104   102   ar
    27   127   126    1
    28   101   102    1
    29   111   113   ar
    30   111   112   ar
    31    70    71    1
    32   102   103   ar
    33    72    73    2
    34    72    71    1
    35    95    94    1
    36    83    84    1
    37    71    74    1
    38    84    85    1
    39   126   129    1
    40   126   125    1
    41   129   130    1
    42   117   116    2
    43    85    86    2
    44    74    75    1
    45   116   115    1
    46   133   131   ar
    47   122   120   ar
    48   122   124   ar
    49   120   119   ar
    50    75    77    1
    51    75    76    1
    52   130   131    1
    53    86    87    1
    54    86    88    1
    55   131   132   ar
    56   124   123   ar
    57   119   118    1
    58   119   121   ar
    59   115   118    1
    60   115   114    1
    61    60    57    1
    62    60    61    1
    63   123   121   ar
    64    63    61   ar
    65   137   136    2
    66   143   144    2
    67   143   142    1
    68    40    41    1
    69    57    58    1
    70    57    56    1
    71    59    58    2
    72    61    62   ar
    73   136   135    1
    74   136   141   am
    75    58    64   am
    76   139   138    1
    77   142   141    1
    78   142   145    1
    79   135   138    1
    80   135   134    1
    81    41    44    1
    82    41    42    1
    83    64    65    1
    84   138   140    1
    85   149   147   ar
    86    65    68    1
    87    65    66    1
    88   146   147    1
    89   146   145    1
    90   147   148   ar
    91    68    69    1
    92    43    42    2
    93    42    45   am
    94    66    67    2
    95    45    46    1
    96    39    37    1
    97    37    36    2
    98    37    38    1
    99    36    35    1
   100    47    46    1
   101    47    48    2
   102    46    49    1
   103    28    26    1
   104    24    23    2
   105    49    50    1
   106    50    51    1
   107    34    35    1
   108    34    33    1
   109    11    10   ar
   110    11     9   ar
   111    25    26    1
   112    25    27    1
   113    25    22    1
   114    23    22    1
   115    23    29   am
   116    19    18   ar
   117    30    33    1
   118    30    29    1
   119    30    31    1
   120    10     8   ar
   121    32    31    2
   122     9     7   ar
   123    20    18   ar
   124    22    21    1
   125    51    52    1
   126    52    53    2
   127    18    17    1
   128     8     6   ar
   129     7     6   ar
   130    55    53    1
   131    53    54    1
   132    15    14    2
   133     6     5    1
   134    17    16    1
   135    13    16    1
   136    13    14    1
   137    13    12    1
   138     4     3    2
   139    12     3   am
   140     3     2    1
   141     5     2    1
   142     2     1    1
