@<TRIPOS>MOLECULE
tmp/1foaA00.pdb
 211 203 0 0 0
SMALL
GASTEIGER

@<TRIPOS>ATOM
      1  N         -3.8020   11.9240    7.8060 N.3     8  ILE8       -0.1231
      2  CA        -3.7130   13.3180    7.3840 C.3     8  ILE8        0.1692
      3  C         -2.4450   13.4420    6.5490 C.2     8  ILE8        0.2592
      4  O         -1.3490   13.0960    7.0030 O.2     8  ILE8       -0.2718
      5  CB        -3.6870   14.3040    8.6040 C.3     8  ILE8        0.0266
      6  CG1       -5.0140   14.2240    9.3770 C.3     8  ILE8        0.0019
      7  CG2       -3.5200   15.7520    8.1260 C.3     8  ILE8        0.0020
      8  CD1       -5.2230   12.9180   10.0630 C.3     8  ILE8        0.0001
      9  N         -2.6190   13.9270    5.3200 N.am    9  ALA9       -0.1966
     10  CA        -1.5260   14.0610    4.3580 C.3     9  ALA9        0.1728
     11  C         -1.5850   15.4100    3.6380 C.2     9  ALA9        0.2616
     12  O         -2.5950   16.1120    3.7050 O.2     9  ALA9       -0.2715
     13  CB        -1.6160   12.8990    3.3190 C.3     9  ALA9        0.0334
     14  N         -0.5040   15.7680    2.9380 N.am   10  CYS10      -0.1968
     15  CA        -0.4590   17.0420    2.2110 C.3    10  CYS10       0.1712
     16  C          0.4740   17.0150    1.0070 C.2    10  CYS10       0.2296
     17  O          0.0350   16.8100   -0.1400 O.2    10  CYS10      -0.2864
     18  CB        -0.0480   18.1620    3.1820 C.3    10  CYS10       0.0983
     19  SG         0.4700   19.7930    2.5390 S.3    10  CYS10      -0.0798
     20  N          3.9430   15.3900    1.1980 N.3    12  ARG12      -0.1245
     21  CA         5.1010   14.5270    1.4060 C.3    12  ARG12       0.1563
     22  C          4.7830   13.1360    0.8560 C.2    12  ARG12       0.2260
     23  O          3.8320   12.4750    1.3060 O.2    12  ARG12      -0.2867
     24  CB         5.4540   14.4400    2.9050 C.3    12  ARG12       0.0307
     25  CG         6.1490   15.7050    3.4450 C.3    12  ARG12       0.0489
     26  CD         6.5600   15.5890    4.9390 C.3    12  ARG12       0.2205
     27  NE         5.4220   15.3810    5.8260 N.pl3  12  ARG12      -0.0865
     28  CZ         5.3540   15.8310    7.0770 C.cat  12  ARG12       0.5346
     29  NH1        6.3760   16.5340    7.5950 N.pl3  12  ARG12       0.1354
     30  NH2        4.2670   15.5840    7.8080 N.pl3  12  ARG12       0.1354
     31  N         -4.6710   17.2360    1.8270 N.3    39  ASP39      -0.1225
     32  CA        -4.8390   18.6820    1.6830 C.3    39  ASP39       0.1805
     33  C         -3.7380   19.0870    0.6790 C.2    39  ASP39       0.2598
     34  O         -3.0090   18.2210    0.1870 O.2    39  ASP39      -0.2718
     35  CB        -4.5880   19.3220    3.0610 C.3    39  ASP39       0.1424
     36  CG        -4.7460   20.8300    3.0720 C.2    39  ASP39       0.3668
     37  OD1       -5.4090   21.3980    2.1880 O.co2  39  ASP39      -0.2456
     38  OD2       -4.2140   21.4610    4.0110 O.co2  39  ASP39      -0.2456
     39  N         -3.6550   20.3710    0.3430 N.am   40  CYS40      -0.1970
     40  CA        -2.5770   20.8820   -0.5070 C.3    40  CYS40       0.1712
     41  C         -2.5350   20.6260   -2.0140 C.2    40  CYS40       0.2296
     42  O         -1.8620   21.3570   -2.7210 O.2    40  CYS40      -0.2864
     43  CB        -1.2480   20.4320    0.1060 C.3    40  CYS40       0.0983
     44  SG        -1.2310   20.6970    1.9150 S.3    40  CYS40      -0.0798
     45  N          1.0940   27.9980    7.9550 N.3    78  GLY78      -0.1210
     46  CA         1.0220   26.5510    7.8630 C.3    78  GLY78       0.1956
     47  C          0.1200   25.9760    8.9450 C.2    78  GLY78       0.2611
     48  O         -0.6680   25.0630    8.6870 O.2    78  GLY78      -0.2717
     49  N          0.2310   26.5050   10.1650 N.am   79  TYR79      -0.1976
     50  CA        -0.5990   26.0230   11.2760 C.3    79  TYR79       0.1639
     51  C         -2.0930   26.2800   11.0560 C.2    79  TYR79       0.2290
     52  O         -2.9360   25.5210   11.5550 O.2    79  TYR79      -0.2864
     53  CB        -0.1560   26.6590   12.5930 C.3    79  TYR79       0.0560
     54  CG         1.2510   26.2650   12.9650 C.ar   79  TYR79      -0.0198
     55  CD1        2.3300   27.0880   12.6510 C.ar   79  TYR79      -0.0009
     56  CD2        1.5100   25.0400   13.5660 C.ar   79  TYR79      -0.0009
     57  CE1        3.6380   26.7030   12.9240 C.ar   79  TYR79       0.0417
     58  CE2        2.8230   24.6320   13.8410 C.ar   79  TYR79       0.0417
     59  CZ         3.8790   25.4710   13.5160 C.ar   79  TYR79       0.1957
     60  OH         5.1740   25.0840   13.7770 O.3    79  TYR79      -0.2866
     61  N         -3.4950   26.2420    8.1290 N.3    81  LYS81      -0.1231
     62  CA        -3.8750   25.2480    7.1410 C.3    81  LYS81       0.1693
     63  C         -4.0850   23.8890    7.7980 C.2    81  LYS81       0.2591
     64  O         -5.0290   23.1620    7.4410 O.2    81  LYS81      -0.2718
     65  CB        -2.8140   25.1970    6.0260 C.3    81  LYS81       0.0285
     66  CG        -2.7830   26.5140    5.2320 C.3    81  LYS81       0.0035
     67  CD        -1.8650   26.4880    4.0280 C.3    81  LYS81       0.0206
     68  CE        -2.0740   27.7570    3.1970 C.3    81  LYS81       0.1093
     69  NZ        -1.1810   27.8340    2.0120 N.3    81  LYS81      -0.1314
     70  N         -3.2460   23.5550    8.7880 N.am   82  ILE82      -0.1980
     71  CA        -3.3890   22.2750    9.4840 C.3    82  ILE82       0.1595
     72  C         -4.7290   22.2360   10.2210 C.2    82  ILE82       0.2287
     73  O         -5.4830   21.2580   10.1160 O.2    82  ILE82      -0.2864
     74  CB        -2.2420   22.0270   10.5210 C.3    82  ILE82       0.0276
     75  CG1       -0.9000   21.8610    9.7970 C.3    82  ILE82       0.0022
     76  CG2       -2.5460   20.7810   11.3410 C.3    82  ILE82       0.0022
     77  CD1        0.3150   21.7560   10.7200 C.3    82  ILE82       0.0001
     78  N         -7.6150   21.8890    7.8300 N.3    85  HIS85      -0.1241
     79  CA        -7.6900   20.5190    7.3090 C.3    85  HIS85       0.1621
     80  C         -8.2640   19.5530    8.3450 C.2    85  HIS85       0.2264
     81  O         -9.1400   18.7440    8.0170 O.2    85  HIS85      -0.2867
     82  CB        -6.3260   19.9940    6.8480 C.3    85  HIS85       0.0745
     83  CG        -6.4040   18.6680    6.1500 C.ar   85  HIS85       0.0817
     84  ND1       -5.2950   17.8870    5.9030 N.ar   85  HIS85      -0.2268
     85  CD2       -7.4560   18.0070    5.6020 C.ar   85  HIS85       0.1154
     86  CE1       -5.6570   16.8040    5.2360 C.ar   85  HIS85       0.1986
     87  NE2       -6.9650   16.8530    5.0390 N.ar   85  HIS85      -0.2212
     88  N         -0.9250   11.1910   11.5050 N.3   106  GLU106     -0.1231
     89  CA        -0.3260   12.0760   10.5200 C.3   106  GLU106      0.1699
     90  C          0.5830   11.2700    9.5790 C.2   106  GLU106      0.2592
     91  O          1.1010   10.2090    9.9550 O.2   106  GLU106     -0.2718
     92  CB         0.4040   13.2250   11.2200 C.3   106  GLU106      0.0402
     93  CG        -0.6050   14.1020   11.9650 C.3   106  GLU106      0.1161
     94  CD         0.0120   15.2860   12.6670 C.2   106  GLU106      0.3649
     95  OE1        1.1750   15.1800   13.1040 O.co2 106  GLU106     -0.2457
     96  OE2       -0.6810   16.3240   12.7990 O.co2 106  GLU106     -0.2457
     97  N          0.7490   11.7780    8.3600 N.am  107  ASP107     -0.1960
     98  CA         1.5280   11.1220    7.3120 C.3   107  ASP107      0.1840
     99  C          2.9890   10.8040    7.6150 C.2   107  ASP107      0.2622
    100  O          3.6080   10.0090    6.8880 O.2   107  ASP107     -0.2715
    101  CB         1.4570   11.9590    6.0280 C.3   107  ASP107      0.1450
    102  CG         2.1080   13.3260    6.1930 C.2   107  ASP107      0.3671
    103  OD1        1.8420   13.9760    7.2100 O.co2 107  ASP107     -0.2456
    104  OD2        2.8760   13.7580    5.3180 O.co2 107  ASP107     -0.2456
    105  N          3.5520   11.4060    8.6630 N.am  108  ASP108     -0.1971
    106  CA         4.9470   11.1440    8.9930 C.3   108  ASP108      0.1709
    107  C          5.1390   10.2530   10.2290 C.2   108  ASP108      0.2293
    108  O          6.1800   10.2890   10.8920 O.2   108  ASP108     -0.2864
    109  CB         5.7270   12.4700    9.1240 C.3   108  ASP108      0.1436
    110  CG         5.1730   13.4000   10.2020 C.2   108  ASP108      0.3671
    111  OD1        4.0800   13.1230   10.7510 O.co2 108  ASP108     -0.2456
    112  OD2        5.8370   14.4310   10.4970 O.co2 108  ASP108     -0.2456
    113  N         -0.2290   12.5940   18.2150 N.3   164  LEU164     -0.1245
    114  CA         0.6390   11.6310   17.5360 C.3   164  LEU164      0.1561
    115  C          0.1320   10.1810   17.5440 C.2   164  LEU164      0.2260
    116  O          0.7600    9.2910   18.1040 O.2   164  LEU164     -0.2867
    117  CB         2.0550   11.7360   18.1340 C.3   164  LEU164      0.0270
    118  CG         2.5750   13.1800   17.9450 C.3   164  LEU164      0.0019
    119  CD1        3.8520   13.4260   18.7480 C.3   164  LEU164      0.0001
    120  CD2        2.7960   13.4310   16.4560 C.3   164  LEU164      0.0001
    121  N         -2.9020   26.1230   15.7200 N.3   184  PHE184     -0.1227
    122  CA        -2.2940   25.4160   16.8520 C.3   184  PHE184      0.1736
    123  C         -3.3440   24.6090   17.5920 C.2   184  PHE184      0.2595
    124  O         -3.5590   24.7790   18.8080 O.2   184  PHE184     -0.2718
    125  CB        -1.6280   26.4200   17.7930 C.3   184  PHE184      0.0547
    126  CG        -0.7580   27.4130   17.0770 C.ar  184  PHE184     -0.0202
    127  CD1       -1.1730   28.7300   16.9080 C.ar  184  PHE184     -0.0042
    128  CD2        0.4690   27.0160   16.5410 C.ar  184  PHE184     -0.0042
    129  CE1       -0.3810   29.6520   16.2120 C.ar  184  PHE184     -0.0003
    130  CE2        1.2610   27.9180   15.8490 C.ar  184  PHE184     -0.0003
    131  CZ         0.8350   29.2430   15.6830 C.ar  184  PHE184     -0.0000
    132  N         -3.9780   23.7030   16.8550 N.am  185  TRP185     -0.1962
    133  CA        -5.0550   22.9030   17.4020 C.3   185  TRP185      0.1771
    134  C         -4.6640   22.0170   18.5820 C.2   185  TRP185      0.2619
    135  O         -5.4360   21.9090   19.5380 O.2   185  TRP185     -0.2715
    136  CB        -5.7220   22.0720   16.2950 C.3   185  TRP185      0.0590
    137  CG        -4.9090   20.9390   15.8270 C.ar  185  TRP185      0.0006
    138  CD1       -3.9790   20.9500   14.8290 C.ar  185  TRP185      0.0946
    139  CD2       -4.8210   19.6570   16.4450 C.ar  185  TRP185      0.0152
    140  NE1       -3.3030   19.7510   14.7960 N.ar  185  TRP185     -0.2442
    141  CE2       -3.8000   18.9420   15.7830 C.ar  185  TRP185      0.0810
    142  CE3       -5.5000   19.0440   17.5090 C.ar  185  TRP185      0.0012
    143  CZ2       -3.4330   17.6390   16.1540 C.ar  185  TRP185      0.0191
    144  CZ3       -5.1330   17.7530   17.8780 C.ar  185  TRP185      0.0001
    145  CH2       -4.1040   17.0680   17.1990 C.ar  185  TRP185      0.0015
    146  N         -3.4730   21.4140   18.5470 N.am  186  ASP186     -0.1971
    147  CA        -3.0490   20.5470   19.6460 C.3   186  ASP186      0.1709
    148  C         -2.8050   21.2850   20.9740 C.2   186  ASP186      0.2293
    149  O         -3.1920   20.7810   22.0280 O.2   186  ASP186     -0.2864
    150  CB        -1.8220   19.6900   19.2410 C.3   186  ASP186      0.1436
    151  CG        -0.6810   20.5100   18.6730 C.2   186  ASP186      0.3671
    152  OD1        0.4560   20.0000   18.6390 O.co2 186  ASP186     -0.2456
    153  OD2       -0.9080   21.6530   18.2470 O.co2 186  ASP186     -0.2456
    154  N         -4.9500   21.3290   24.7330 N.3   190  ARG190     -0.1245
    155  CA        -4.2630   21.1760   26.0020 C.3   190  ARG190      0.1563
    156  C         -4.7460   22.1600   27.0670 C.2   190  ARG190      0.2260
    157  O         -4.4700   21.9830   28.2550 O.2   190  ARG190     -0.2867
    158  CB        -2.7440   21.2660   25.8100 C.3   190  ARG190      0.0307
    159  CG        -2.1400   19.9520   25.2990 C.3   190  ARG190      0.0489
    160  CD        -0.8380   20.1430   24.5120 C.3   190  ARG190      0.2205
    161  NE        -0.4300   18.8850   23.8750 N.pl3 190  ARG190     -0.0865
    162  CZ         0.3800   18.8160   22.8250 C.cat 190  ARG190      0.5346
    163  NH1        0.8750   19.9270   22.2840 N.pl3 190  ARG190      0.1354
    164  NH2        0.6970   17.6390   22.3070 N.pl3 190  ARG190      0.1354
    165  N          7.9380    9.2000   14.7940 N.3   210  THR210     -0.1218
    166  CA         7.8850   10.1460   13.6970 C.3   210  THR210      0.1862
    167  C          9.2050   10.2480   12.9410 C.2   210  THR210      0.2287
    168  O         10.2940   10.2060   13.5220 O.2   210  THR210     -0.2866
    169  CB         7.4050   11.5780   14.1480 C.3   210  THR210      0.1770
    170  OG1        7.2000   12.4010   12.9870 O.3   210  THR210     -0.2211
    171  CG2        8.4200   12.2650   15.0510 C.3   210  THR210      0.0375
    172  N          9.0950   12.6230   10.2960 N.3   212  GLY212     -0.1225
    173  CA         8.8610   13.9100    9.6410 C.3   212  GLY212      0.1811
    174  C          9.7960   15.0610   10.0050 C.2   212  GLY212      0.2280
    175  O          9.3820   16.0880   10.5940 O.2   212  GLY212     -0.2866
    176  N          8.8660   19.5900    7.7820 N.3   215  GLY215     -0.1210
    177  CA         7.4200   19.6970    7.7840 C.3   215  GLY215      0.1956
    178  C          6.9640   21.1300    7.9510 C.2   215  GLY215      0.2612
    179  O          7.6380   22.0680    7.4920 O.2   215  GLY215     -0.2717
    180  N          5.8090   21.3170    8.5820 N.am  216  VAL216     -0.1965
    181  CA         5.3120   22.6650    8.8170 C.3   216  VAL216      0.1727
    182  C          6.2540   23.2960    9.8300 C.2   216  VAL216      0.2616
    183  O          6.9760   24.2470    9.5120 O.2   216  VAL216     -0.2715
    184  CB         3.8830   22.6460    9.3730 C.3   216  VAL216      0.0290
    185  CG1        3.4730   24.0400    9.8410 C.3   216  VAL216      0.0023
    186  CG2        2.9420   22.1520    8.2940 C.3   216  VAL216      0.0023
    187  N          6.2550   22.7590   11.0470 N.am  217  SER217     -0.1950
    188  CA         7.1440   23.2720   12.0830 C.3   217  SER217      0.1924
    189  C          8.5820   23.0880   11.6270 C.2   217  SER217      0.2314
    190  O          8.8830   22.2480   10.7710 O.2   217  SER217     -0.2863
    191  CB         6.9730   22.5100   13.4060 C.3   217  SER217      0.2116
    192  OG         5.6540   22.6040   13.9120 O.3   217  SER217     -0.2180
    193  N         12.5090   20.9760   17.4850 N.3   221  PHE221     -0.1241
    194  CA        11.8290   20.1090   18.4280 C.3   221  PHE221      0.1605
    195  C         11.9460   18.6590   17.9640 C.2   221  PHE221      0.2264
    196  O         12.1470   17.7570   18.7860 O.2   221  PHE221     -0.2867
    197  CB        10.3570   20.5110   18.5640 C.3   221  PHE221      0.0534
    198  CG         9.6420   19.8010   19.6720 C.ar  221  PHE221     -0.0203
    199  CD1       10.2050   19.7360   20.9470 C.ar  221  PHE221     -0.0042
    200  CD2        8.4270   19.1690   19.4430 C.ar  221  PHE221     -0.0042
    201  CE1        9.5760   19.0500   21.9680 C.ar  221  PHE221     -0.0003
    202  CE2        7.7880   18.4800   20.4590 C.ar  221  PHE221     -0.0003
    203  CZ         8.3610   18.4160   21.7240 C.ar  221  PHE221     -0.0000
    204  N         11.6570   14.6870   19.4900 N.3   226  LEU226     -0.1245
    205  CA        10.7770   13.7690   18.7950 C.3   226  LEU226      0.1561
    206  C         11.4200   12.5820   18.1000 C.2   226  LEU226      0.2260
    207  O         10.8670   11.4800   18.1470 O.2   226  LEU226     -0.2867
    208  CB         9.9010   14.5290   17.7980 C.3   226  LEU226      0.0270
    209  CG         8.9280   15.5810   18.3590 C.3   226  LEU226      0.0019
    210  CD1        8.2250   16.2320   17.1880 C.3   226  LEU226      0.0001
    211  CD2        7.9130   14.9670   19.3050 C.3   226  LEU226      0.0001
@<TRIPOS>BOND
     1    42    41    2
     2    41    40    1
     3    40    43    1
     4    40    39    1
     5    17    16    2
     6    43    44    1
     7    34    33    2
     8    39    33   am
     9    33    32    1
    10    22    23    2
    11    22    21    1
    12    16    15    1
    13    20    21    1
    14    21    24    1
    15    32    31    1
    16    32    35    1
    17    44    19    1
    18    69    68    1
    19    37    36   ar
    20    15    14    1
    21    15    18    1
    22    19    18    1
    23    24    25    1
    24    14    11   am
    25    35    36    1
    26    36    38   ar
    27    68    67    1
    28    13    10    1
    29    25    26    1
    30    11    12    2
    31    11    10    1
    32    67    66    1
    33    10     9    1
    34    26    27    1
    35    87    86   ar
    36    87    85   ar
    37    66    65    1
    38    86    84   ar
    39   104   102   ar
    40     9     3   am
    41    85    83   ar
    42    27    28    2
    43    84    83   ar
    44    65    62    1
    45   101   102    1
    46   101    98    1
    47    83    82    1
    48   102   103   ar
    49     3     4    2
    50     3     2    1
    51    82    79    1
    52   100    99    2
    53    28    29    1
    54    28    30    1
    55    62    63    1
    56    62    61    1
    57    79    78    1
    58    79    80    1
    59    98    99    1
    60    98    97    1
    61     2     1    1
    62     2     5    1
    63    64    63    2
    64   179   178    2
    65    99   105   am
    66   176   177    1
    67   177   178    1
    68    63    70   am
    69    46    45    1
    70    46    47    1
    71   178   180   am
    72    81    80    2
    73     7     5    1
    74   186   184    1
    75    97    90   am
    76   180   181    1
    77     5     6    1
    78   105   106    1
    79    48    47    2
    80    70    71    1
    81   181   184    1
    82   181   182    1
    83    47    49   am
    84   106   109    1
    85   106   107    1
    86   109   110    1
    87   184   185    1
    88     6     8    1
    89    71    72    1
    90    71    74    1
    91   183   182    2
    92    90    91    2
    93    90    89    1
    94   173   174    1
    95   173   172    1
    96    75    74    1
    97    75    77    1
    98   182   187   am
    99   174   175    2
   100    73    72    2
   101    49    50    1
   102   110   112   ar
   103   110   111   ar
   104   107   108    2
   105    89    92    1
   106    89    88    1
   107    74    76    1
   108   190   189    2
   109   187   188    1
   110    51    50    1
   111    51    52    2
   112    92    93    1
   113    50    53    1
   114   189   188    1
   115    93    94    1
   116   188   191    1
   117    53    54    1
   118    55    57   ar
   119    55    54   ar
   120    94    96   ar
   121    94    95   ar
   122    57    59   ar
   123   167   168    2
   124   167   166    1
   125    54    56   ar
   126   170   169    1
   127   191   192    1
   128    59    60    1
   129    59    58   ar
   130    56    58   ar
   131   166   169    1
   132   166   165    1
   133   169   171    1
   134   140   138   ar
   135   140   141   ar
   136   138   137   ar
   137   131   130   ar
   138   131   129   ar
   139   121   122    1
   140   141   143   ar
   141   141   139   ar
   142   137   136    1
   143   137   139   ar
   144   130   128   ar
   145   143   145   ar
   146   129   127   ar
   147   136   133    1
   148   139   142   ar
   149   120   118    1
   150   128   126   ar
   151   122   123    1
   152   122   125    1
   153   132   133    1
   154   132   123   am
   155   127   126   ar
   156   126   125    1
   157   210   209    1
   158   145   144   ar
   159   133   134    1
   160   193   194    1
   161   142   144   ar
   162   114   115    1
   163   114   117    1
   164   114   113    1
   165   115   116    2
   166   123   124    2
   167   208   209    1
   168   208   205    1
   169   118   117    1
   170   118   119    1
   171   195   194    1
   172   195   196    2
   173   206   207    2
   174   206   205    1
   175   153   151   ar
   176   209   211    1
   177   194   197    1
   178   146   134   am
   179   146   147    1
   180   197   198    1
   181   134   135    2
   182   152   151   ar
   183   151   150    1
   184   205   204    1
   185   150   147    1
   186   200   198   ar
   187   200   202   ar
   188   147   148    1
   189   198   199   ar
   190   202   203   ar
   191   199   201   ar
   192   148   149    2
   193   203   201   ar
   194   163   162    1
   195   164   162    1
   196   162   161    2
   197   161   160    1
   198   160   159    1
   199   154   155    1
   200   159   158    1
   201   158   155    1
   202   155   156    1
   203   156   157    2
