@<TRIPOS>MOLECULE
tmp/1foiA01.pdb
 115 114 0 0 0
SMALL
GASTEIGER

@<TRIPOS>ATOM
      1  N          8.8450    5.1940   36.8490 N.3   120  CYS120     -0.1235
      2  CA         7.7990    5.5140   35.8860 C.3   120  CYS120      0.1677
      3  C          6.4660    4.8200   36.1890 C.2   120  CYS120      0.2270
      4  O          6.3660    3.5880   36.1690 O.2   120  CYS120     -0.2867
      5  CB         8.2470    5.1320   34.4750 C.3   120  CYS120      0.0956
      6  SG         7.0130    5.5350   33.2240 S.3   120  CYS120     -0.0801
      7  N         15.0330   18.4300   28.3750 N.3   183  GLN183     -0.1245
      8  CA        13.8150   18.0430   27.6640 C.3   183  GLN183      0.1566
      9  C         13.8110   18.7580   26.3100 C.2   183  GLN183      0.2260
     10  O         14.4710   19.7920   26.1550 O.2   183  GLN183     -0.2867
     11  CB        12.5630   18.4570   28.4410 C.3   183  GLN183      0.0367
     12  CG        12.2440   17.6310   29.6830 C.3   183  GLN183      0.0905
     13  CD        10.9130   18.0480   30.3080 C.2   183  GLN183      0.2608
     14  OE1        9.9020   18.1790   29.6100 O.2   183  GLN183     -0.2717
     15  NE2       10.9100   18.2570   31.6220 N.am  183  GLN183     -0.0878
     16  N          5.8990   15.7000   26.7590 N.3   270  PRO270     -0.2116
     17  CA         6.9380   15.5570   27.7770 C.3   270  PRO270      0.1372
     18  C          8.0100   14.6550   27.1760 C.2   270  PRO270      0.2244
     19  O          7.8150   13.4410   27.0640 O.2   270  PRO270     -0.2868
     20  CB         6.1900   14.8970   28.9320 C.3   270  PRO270      0.0268
     21  CG         5.2490   13.9870   28.2200 C.3   270  PRO270      0.0207
     22  CD         4.7500   14.8230   27.0560 C.3   270  PRO270      0.0892
     23  N         11.9030   13.7060   27.6940 N.3   272  VAL272     -0.1245
     24  CA        13.1530   13.7480   28.4430 C.3   272  VAL272      0.1561
     25  C         14.3060   13.5250   27.4690 C.2   272  VAL272      0.2260
     26  O         14.2960   12.5570   26.7020 O.2   272  VAL272     -0.2867
     27  CB        13.1720   12.6480   29.5150 C.3   272  VAL272      0.0252
     28  CG1       14.4590   12.7030   30.3040 C.3   272  VAL272      0.0019
     29  CG2       11.9690   12.8120   30.4330 C.3   272  VAL272      0.0019
     30  N         18.8540   11.8410   29.5380 N.3   275  MET275     -0.1245
     31  CA        19.1350   10.5390   30.1270 C.3   275  MET275      0.1570
     32  C         19.8970    9.6190   29.1880 C.2   275  MET275      0.2261
     33  O         19.7860    9.7170   27.9680 O.2   275  MET275     -0.2867
     34  CB        17.8410    9.8590   30.5710 C.3   275  MET275      0.0387
     35  CG        17.1300   10.5950   31.6970 C.3   275  MET275      0.0595
     36  SD        15.8050    9.6330   32.4410 S.3   275  MET275     -0.1393
     37  CE        16.7540    8.5510   33.4350 C.3   275  MET275      0.0692
     38  N         13.2950   10.4060   24.7300 N.3   289  PHE289     -0.1227
     39  CA        12.0710    9.6070   24.7100 C.3   289  PHE289      0.1736
     40  C         10.8870   10.4500   25.1980 C.2   289  PHE289      0.2596
     41  O         11.0770   11.4210   25.9330 O.2   289  PHE289     -0.2718
     42  CB        12.2520    8.3620   25.5890 C.3   289  PHE289      0.0547
     43  CG        12.5350    8.6660   27.0410 C.ar  289  PHE289     -0.0202
     44  CD1       11.5090    9.0530   27.8990 C.ar  289  PHE289     -0.0042
     45  CD2       13.8270    8.5740   27.5490 C.ar  289  PHE289     -0.0042
     46  CE1       11.7650    9.3420   29.2400 C.ar  289  PHE289     -0.0003
     47  CE2       14.0990    8.8620   28.8950 C.ar  289  PHE289     -0.0003
     48  CZ        13.0680    9.2440   29.7400 C.ar  289  PHE289     -0.0000
     49  N          9.6730   10.0920   24.7800 N.am  290  SER290     -0.1938
     50  CA         8.4920   10.8380   25.2030 C.3   290  SER290      0.2055
     51  C          7.2250    9.9870   25.2350 C.2   290  SER290      0.2644
     52  O          7.1080    8.9670   24.5340 O.2   290  SER290     -0.2714
     53  CB         8.2670   12.0460   24.2860 C.3   290  SER290      0.2130
     54  OG         7.9700   11.6400   22.9630 O.3   290  SER290     -0.2179
     55  N          6.2860   10.4080   26.0770 N.am  291  GLY291     -0.1939
     56  CA         5.0140    9.7190   26.1890 C.3   291  GLY291      0.2014
     57  C          3.9870   10.8310   26.2580 C.2   291  GLY291      0.2639
     58  O          3.9410   11.6970   25.3810 O.2   291  GLY291     -0.2714
     59  N          3.1370   10.7930   27.2720 N.am  292  TRP292     -0.1959
     60  CA         2.1720   11.8590   27.4780 C.3   292  TRP292      0.1771
     61  C          2.2180   12.1660   28.9620 C.2   292  TRP292      0.2620
     62  O          2.7930   11.4050   29.7420 O.2   292  TRP292     -0.2715
     63  CB         0.7570   11.4870   27.0040 C.3   292  TRP292      0.0590
     64  CG         0.2040   10.2110   27.5100 C.ar  292  TRP292      0.0006
     65  CD1       -0.3680    9.9820   28.7350 C.ar  292  TRP292      0.0946
     66  CD2        0.1350    8.9710   26.7940 C.ar  292  TRP292      0.0152
     67  NE1       -0.7900    8.6810   28.8170 N.ar  292  TRP292     -0.2442
     68  CE2       -0.4910    8.0360   27.6420 C.ar  292  TRP292      0.0810
     69  CE3        0.5450    8.5630   25.5120 C.ar  292  TRP292      0.0012
     70  CZ2       -0.7190    6.7120   27.2580 C.ar  292  TRP292      0.0191
     71  CZ3        0.3190    7.2450   25.1250 C.ar  292  TRP292      0.0001
     72  CH2       -0.3110    6.3320   26.0000 C.ar  292  TRP292      0.0015
     73  N          1.6340   13.2910   29.3470 N.am  293  TYR293     -0.1960
     74  CA         1.6560   13.7220   30.7340 C.3   293  TYR293      0.1771
     75  C          0.6490   13.1160   31.6810 C.2   293  TYR293      0.2619
     76  O         -0.4330   12.7000   31.2870 O.2   293  TYR293     -0.2715
     77  CB         1.4580   15.2390   30.8040 C.3   293  TYR293      0.0574
     78  CG         2.7090   16.0690   30.7630 C.ar  293  TYR293     -0.0198
     79  CD1        3.6740   15.9680   31.7720 C.ar  293  TYR293     -0.0009
     80  CD2        2.9100   17.0020   29.7430 C.ar  293  TYR293     -0.0009
     81  CE1        4.8000   16.7810   31.7660 C.ar  293  TYR293      0.0417
     82  CE2        4.0320   17.8160   29.7270 C.ar  293  TYR293      0.0417
     83  CZ         4.9680   17.7060   30.7380 C.ar  293  TYR293      0.1957
     84  OH         6.0590   18.5370   30.7350 O.3   293  TYR293     -0.2866
     85  N          1.0390   13.0640   32.9470 N.am  294  MET294     -0.1977
     86  CA         0.1200   12.6660   33.9950 C.3   294  MET294      0.1605
     87  C         -0.0910   14.0720   34.5610 C.2   294  MET294      0.2287
     88  O          0.8800   14.7830   34.8480 O.2   294  MET294     -0.2864
     89  CB         0.7580   11.7510   35.0350 C.3   294  MET294      0.0413
     90  CG        -0.2030   11.4850   36.1950 C.3   294  MET294      0.0598
     91  SD         0.2940   10.1450   37.2390 S.3   294  MET294     -0.1393
     92  CE         1.3510   11.0360   38.4170 C.3   294  MET294      0.0692
     93  N          2.1350   16.1820   37.1030 N.3   297  GLU297     -0.1245
     94  CA         3.4610   16.6450   36.7100 C.3   297  GLU297      0.1567
     95  C          3.3600   18.1430   36.4200 C.2   297  GLU297      0.2260
     96  O          4.2020   18.9460   36.8520 O.2   297  GLU297     -0.2867
     97  CB         3.9310   15.8970   35.4590 C.3   297  GLU297      0.0388
     98  CG         4.2810   14.4340   35.7010 C.3   297  GLU297      0.1160
     99  CD         4.7740   13.7370   34.4370 C.2   297  GLU297      0.3649
    100  OE1        3.9410   13.2040   33.6700 O.co2 297  GLU297     -0.2457
    101  OE2        6.0040   13.7380   34.2090 O.co2 297  GLU297     -0.2457
    102  N          8.2740    7.9160   44.0100 N.3   383  TRP383     -0.1241
    103  CA         8.0600    8.4830   42.6840 C.3   383  TRP383      0.1605
    104  C          6.7600    7.9850   42.0530 C.2   383  TRP383      0.2264
    105  O          6.1650    8.6590   41.2070 O.2   383  TRP383     -0.2867
    106  CB         9.2450    8.1570   41.7650 C.3   383  TRP383      0.0550
    107  CG        10.4790    8.9790   42.0390 C.ar  383  TRP383      0.0003
    108  CD1       11.2550    8.9560   43.1630 C.ar  383  TRP383      0.0946
    109  CD2       11.0690    9.9500   41.1630 C.ar  383  TRP383      0.0152
    110  NE1       12.2930    9.8590   43.0400 N.ar  383  TRP383     -0.2442
    111  CE2       12.2000   10.4780   41.8230 C.ar  383  TRP383      0.0810
    112  CE3       10.7480   10.4240   39.8850 C.ar  383  TRP383      0.0012
    113  CZ2       13.0140   11.4570   41.2470 C.ar  383  TRP383      0.0191
    114  CZ3       11.5610   11.4050   39.3070 C.ar  383  TRP383      0.0001
    115  CH2       12.6820   11.9070   39.9920 C.ar  383  TRP383      0.0015
@<TRIPOS>BOND
     1    54    53    1
     2    53    50    1
     3    52    51    2
     4    39    38    1
     5    39    40    1
     6    39    42    1
     7    49    40   am
     8    49    50    1
     9    71    69   ar
    10    71    72   ar
    11    40    41    2
    12    50    51    1
    13    51    55   am
    14    58    57    2
    15    69    66   ar
    16    42    43    1
    17    72    70   ar
    18    55    56    1
    19    10     9    2
    20    56    57    1
    21    57    59   am
    22     9     8    1
    23    26    25    2
    24    16    22    1
    25    16    17    1
    26    66    64   ar
    27    66    68   ar
    28    63    60    1
    29    63    64    1
    30    43    45   ar
    31    43    44   ar
    32    22    21    1
    33    19    18    2
    34    18    17    1
    35    70    68   ar
    36    59    60    1
    37    25    24    1
    38    60    61    1
    39    64    65   ar
    40    45    47   ar
    41    68    67   ar
    42     8     7    1
    43     8    11    1
    44    23    24    1
    45    17    20    1
    46    44    46   ar
    47    33    32    2
    48    21    20    1
    49    11    12    1
    50    24    27    1
    51    65    67   ar
    52    47    48   ar
    53    61    73   am
    54    61    62    2
    55    32    31    1
    56    46    48   ar
    57    73    74    1
    58    27    28    1
    59    27    29    1
    60    30    31    1
    61    14    13    2
    62    12    13    1
    63    82    80   ar
    64    82    83   ar
    65    80    78   ar
    66    31    34    1
    67    13    15   am
    68    34    35    1
    69    74    77    1
    70    74    75    1
    71    84    83    1
    72    83    81   ar
    73    78    77    1
    74    78    79   ar
    75    76    75    2
    76    75    85   am
    77    35    36    1
    78    81    79   ar
    79    36    37    1
    80    85    86    1
    81     6     5    1
    82   100    99   ar
    83    86    87    1
    84    86    89    1
    85   101    99   ar
    86    99    98    1
    87     5     2    1
    88    87    88    2
    89    89    90    1
    90    97    98    1
    91    97    94    1
    92     2     3    1
    93     2     1    1
    94     4     3    2
    95    90    91    1
    96    95    94    1
    97    95    96    2
    98    94    93    1
    99    91    92    1
   100   114   112   ar
   101   114   115   ar
   102   112   109   ar
   103   115   113   ar
   104   109   111   ar
   105   109   107   ar
   106   105   104    2
   107   113   111   ar
   108   106   107    1
   109   106   103    1
   110   111   110   ar
   111   107   108   ar
   112   104   103    1
   113   103   102    1
   114   110   108   ar
