@<TRIPOS>MOLECULE
tmp/1fooA01.pdb
 146 142 0 0 0
SMALL
GASTEIGER

@<TRIPOS>ATOM
      1  N          8.7720    5.2980   36.7080 N.3   120  CYS120     -0.1235
      2  CA         7.7230    5.5980   35.7420 C.3   120  CYS120      0.1677
      3  C          6.3850    4.9170   36.0390 C.2   120  CYS120      0.2270
      4  O          6.2910    3.6920   36.1070 O.2   120  CYS120     -0.2867
      5  CB         8.1900    5.2180   34.3320 C.3   120  CYS120      0.0956
      6  SG         7.0740    5.7960   33.0450 S.3   120  CYS120     -0.0801
      7  N         14.9240   18.4620   28.5150 N.3   183  GLN183     -0.1245
      8  CA        13.7220   18.0160   27.8070 C.3   183  GLN183      0.1566
      9  C         13.7490   18.7250   26.4520 C.2   183  GLN183      0.2260
     10  O         14.3720   19.7840   26.3240 O.2   183  GLN183     -0.2867
     11  CB        12.4460   18.4120   28.5590 C.3   183  GLN183      0.0367
     12  CG        12.1420   17.6140   29.8250 C.3   183  GLN183      0.0905
     13  CD        10.7600   17.9440   30.4060 C.2   183  GLN183      0.2608
     14  OE1        9.8460   18.3350   29.6770 O.2   183  GLN183     -0.2717
     15  NE2       10.6060   17.7690   31.7200 N.am  183  GLN183     -0.0878
     16  N         11.0920   23.0100   26.8990 N.3   186  ARG186     -0.1245
     17  CA        11.2570   23.5900   28.2320 C.3   186  ARG186      0.1563
     18  C         11.0970   25.0990   28.1450 C.2   186  ARG186      0.2260
     19  O         11.4460   25.6970   27.1300 O.2   186  ARG186     -0.2867
     20  CB        12.6530   23.2910   28.7790 C.3   186  ARG186      0.0307
     21  CG        12.9490   21.8260   28.9460 C.3   186  ARG186      0.0489
     22  CD        12.0410   21.2320   29.9850 C.3   186  ARG186      0.2205
     23  NE        12.5550   21.4180   31.3320 N.pl3 186  ARG186     -0.0865
     24  CZ        11.7880   21.4330   32.4160 C.cat 186  ARG186      0.5346
     25  NH1       10.4690   21.2840   32.3010 N.pl3 186  ARG186      0.1354
     26  NH2       12.3400   21.5830   33.6140 N.pl3 186  ARG186      0.1354
     27  N          3.1970   23.0100   27.7550 N.3   267  TYR267     -0.1241
     28  CA         3.3430   22.3030   26.4920 C.3   267  TYR267      0.1605
     29  C          2.8140   20.8760   26.6320 C.2   267  TYR267      0.2264
     30  O          2.8440   20.2900   27.7150 O.2   267  TYR267     -0.2867
     31  CB         4.8070   22.3110   26.0610 C.3   267  TYR267      0.0534
     32  CG         5.7500   21.8940   27.1480 C.ar  267  TYR267     -0.0201
     33  CD1        6.0360   20.5480   27.3630 C.ar  267  TYR267     -0.0009
     34  CD2        6.3580   22.8450   27.9670 C.ar  267  TYR267     -0.0009
     35  CE1        6.9130   20.1500   28.3690 C.ar  267  TYR267      0.0417
     36  CE2        7.2390   22.4690   28.9810 C.ar  267  TYR267      0.0417
     37  CZ         7.5080   21.1220   29.1680 C.ar  267  TYR267      0.1957
     38  OH         8.3950   20.7360   30.1440 O.3   267  TYR267     -0.2866
     39  N          5.9180   15.8300   26.8550 N.3   270  PRO270     -0.2116
     40  CA         6.9620   15.6780   27.8700 C.3   270  PRO270      0.1372
     41  C          8.0400   14.7730   27.2730 C.2   270  PRO270      0.2244
     42  O          7.8280   13.5670   27.1170 O.2   270  PRO270     -0.2868
     43  CB         6.2170   15.0160   29.0270 C.3   270  PRO270      0.0268
     44  CG         5.2650   14.1130   28.3150 C.3   270  PRO270      0.0207
     45  CD         4.7630   14.9610   27.1560 C.3   270  PRO270      0.0892
     46  N         11.8880   13.7430   27.9120 N.3   272  VAL272     -0.1245
     47  CA        13.1570   13.7360   28.6230 C.3   272  VAL272      0.1561
     48  C         14.2690   13.5330   27.6000 C.2   272  VAL272      0.2260
     49  O         14.2190   12.5910   26.8030 O.2   272  VAL272     -0.2867
     50  CB        13.1960   12.5950   29.6600 C.3   272  VAL272      0.0252
     51  CG1       14.5690   12.5210   30.3160 C.3   272  VAL272      0.0019
     52  CG2       12.1270   12.8260   30.6960 C.3   272  VAL272      0.0019
     53  N         13.2680   10.4940   24.7570 N.3   289  PHE289     -0.1227
     54  CA        12.0420    9.7120   24.7280 C.3   289  PHE289      0.1736
     55  C         10.8770   10.5600   25.2280 C.2   289  PHE289      0.2596
     56  O         11.0830   11.5350   25.9490 O.2   289  PHE289     -0.2718
     57  CB        12.2120    8.4510   25.5860 C.3   289  PHE289      0.0547
     58  CG        12.6180    8.7270   27.0090 C.ar  289  PHE289     -0.0202
     59  CD1       11.6630    9.0490   27.9670 C.ar  289  PHE289     -0.0042
     60  CD2       13.9490    8.6380   27.3940 C.ar  289  PHE289     -0.0042
     61  CE1       12.0250    9.2730   29.2880 C.ar  289  PHE289     -0.0003
     62  CE2       14.3290    8.8610   28.7190 C.ar  289  PHE289     -0.0003
     63  CZ        13.3680    9.1770   29.6680 C.ar  289  PHE289     -0.0000
     64  N          9.6590   10.1910   24.8380 N.am  290  SER290     -0.1938
     65  CA         8.4840   10.9330   25.2550 C.3   290  SER290      0.2055
     66  C          7.2220   10.0740   25.3020 C.2   290  SER290      0.2644
     67  O          7.0910    9.0710   24.5740 O.2   290  SER290     -0.2714
     68  CB         8.2500   12.1070   24.3070 C.3   290  SER290      0.2130
     69  OG         7.9580   11.6460   23.0010 O.3   290  SER290     -0.2179
     70  N          6.2960   10.4770   26.1720 N.am  291  GLY291     -0.1939
     71  CA         5.0280    9.7840   26.3100 C.3   291  GLY291      0.2014
     72  C          3.9760   10.8730   26.3380 C.2   291  GLY291      0.2639
     73  O          3.8510   11.6410   25.3850 O.2   291  GLY291     -0.2714
     74  N          3.2000   10.9230   27.4100 N.am  292  TRP292     -0.1959
     75  CA         2.2050   11.9690   27.5910 C.3   292  TRP292      0.1771
     76  C          2.1780   12.2530   29.0800 C.2   292  TRP292      0.2620
     77  O          2.6270   11.4320   29.8760 O.2   292  TRP292     -0.2715
     78  CB         0.8220   11.5710   27.0390 C.3   292  TRP292      0.0590
     79  CG         0.2580   10.2980   27.5350 C.ar  292  TRP292      0.0006
     80  CD1       -0.2980   10.0650   28.7600 C.ar  292  TRP292      0.0946
     81  CD2        0.1970    9.0610   26.8180 C.ar  292  TRP292      0.0152
     82  NE1       -0.7000    8.7530   28.8480 N.ar  292  TRP292     -0.2442
     83  CE2       -0.4070    8.1140   27.6710 C.ar  292  TRP292      0.0810
     84  CE3        0.5970    8.6610   25.5360 C.ar  292  TRP292      0.0012
     85  CZ2       -0.6220    6.7880   27.2860 C.ar  292  TRP292      0.0191
     86  CZ3        0.3820    7.3380   25.1480 C.ar  292  TRP292      0.0001
     87  CH2       -0.2220    6.4170   26.0260 C.ar  292  TRP292      0.0015
     88  N          1.6880   13.4300   29.4500 N.am  293  TYR293     -0.1960
     89  CA         1.6550   13.8500   30.8460 C.3   293  TYR293      0.1771
     90  C          0.6330   13.2210   31.7650 C.2   293  TYR293      0.2619
     91  O         -0.4520   12.8280   31.3440 O.2   293  TYR293     -0.2715
     92  CB         1.4290   15.3690   30.9260 C.3   293  TYR293      0.0574
     93  CG         2.6740   16.2140   30.8990 C.ar  293  TYR293     -0.0198
     94  CD1        3.5730   16.1960   31.9640 C.ar  293  TYR293     -0.0009
     95  CD2        2.9440   17.0540   29.8140 C.ar  293  TYR293     -0.0009
     96  CE1        4.7130   16.9950   31.9550 C.ar  293  TYR293      0.0417
     97  CE2        4.0750   17.8560   29.7840 C.ar  293  TYR293      0.0417
     98  CZ         4.9500   17.8210   30.8570 C.ar  293  TYR293      0.1957
     99  OH         6.0610   18.6260   30.8410 O.3   293  TYR293     -0.2866
    100  N          1.0100   13.1250   33.0330 N.am  294  MET294     -0.1977
    101  CA         0.0870   12.7050   34.0650 C.3   294  MET294      0.1605
    102  C         -0.1580   14.1010   34.6490 C.2   294  MET294      0.2287
    103  O          0.7990   14.8220   34.9550 O.2   294  MET294     -0.2864
    104  CB         0.7310   11.8160   35.1160 C.3   294  MET294      0.0413
    105  CG        -0.1630   11.7200   36.3630 C.3   294  MET294      0.0598
    106  SD         0.2950   10.4650   37.5040 S.3   294  MET294     -0.1393
    107  CE         1.5230   11.3550   38.4520 C.3   294  MET294      0.0692
    108  N          1.9540   16.2130   37.2650 N.3   297  GLU297     -0.1245
    109  CA         3.2960   16.6500   36.8830 C.3   297  GLU297      0.1567
    110  C          3.2570   18.1420   36.5850 C.2   297  GLU297      0.2260
    111  O          4.1490   18.9050   36.9810 O.2   297  GLU297     -0.2867
    112  CB         3.7650   15.9080   35.6270 C.3   297  GLU297      0.0388
    113  CG         4.1310   14.4570   35.8420 C.3   297  GLU297      0.1160
    114  CD         4.6150   13.7860   34.5540 C.2   297  GLU297      0.3649
    115  OE1        3.7630   13.3310   33.7480 O.co2 297  GLU297     -0.2457
    116  OE2        5.8550   13.7290   34.3490 O.co2 297  GLU297     -0.2457
    117  N          3.4800   19.6680   40.5780 N.3   301  ARG301     -0.1231
    118  CA         4.9260   19.8810   40.6300 C.3   301  ARG301      0.1694
    119  C          5.4230   21.1300   39.8980 C.2   301  ARG301      0.2592
    120  O          5.9400   22.0520   40.5250 O.2   301  ARG301     -0.2718
    121  CB         5.6590   18.6330   40.1130 C.3   301  ARG301      0.0321
    122  CG         5.3600   17.3440   40.9080 C.3   301  ARG301      0.0489
    123  CD         5.5400   17.5280   42.4330 C.3   301  ARG301      0.2205
    124  NE         6.8840   17.9890   42.7760 N.pl3 301  ARG301     -0.0865
    125  CZ         7.9820   17.2450   42.6830 C.cat 301  ARG301      0.5346
    126  NH1        7.9070   15.9840   42.2690 N.pl3 301  ARG301      0.1354
    127  NH2        9.1660   17.7760   42.9580 N.pl3 301  ARG301      0.1354
    128  N          5.2540   21.1680   38.5800 N.am  302  ASN302     -0.1974
    129  CA         5.7140   22.3040   37.7820 C.3   302  ASN302      0.1688
    130  C          5.0980   23.6520   38.1510 C.2   302  ASN302      0.2292
    131  O          5.7980   24.6670   38.1930 O.2   302  ASN302     -0.2864
    132  CB         5.4690   22.0410   36.2910 C.3   302  ASN302      0.1181
    133  CG         6.1150   20.7580   35.8190 C.2   302  ASN302      0.2629
    134  OD1        6.9640   20.1970   36.5120 O.2   302  ASN302     -0.2716
    135  ND2        5.7220   20.2850   34.6380 N.am  302  ASN302     -0.0877
    136  N          9.5940   26.1710   41.6920 N.3   308  ARG308     -0.1245
    137  CA         9.1960   26.1920   40.2890 C.3   308  ARG308      0.1563
    138  C          8.3100   27.4200   40.0900 C.2   308  ARG308      0.2260
    139  O          8.6310   28.4810   40.6140 O.2   308  ARG308     -0.2867
    140  CB         8.4570   24.8990   39.9050 C.3   308  ARG308      0.0307
    141  CG         9.3080   23.6290   39.9990 C.3   308  ARG308      0.0489
    142  CD        10.5020   23.6330   39.0270 C.3   308  ARG308      0.2205
    143  NE        10.0820   23.5920   37.6300 N.pl3 308  ARG308     -0.0865
    144  CZ         9.5450   22.5340   37.0270 C.cat 308  ARG308      0.5346
    145  NH1        9.3630   21.3950   37.6950 N.pl3 308  ARG308      0.1354
    146  NH2        9.1710   22.6200   35.7560 N.pl3 308  ARG308      0.1354
@<TRIPOS>BOND
     1    69    68    1
     2    68    65    1
     3    67    66    2
     4    54    53    1
     5    54    55    1
     6    54    57    1
     7    64    55   am
     8    64    65    1
     9    86    84   ar
    10    86    87   ar
    11    55    56    2
    12    65    66    1
    13    66    70   am
    14    73    72    2
    15    84    81   ar
    16    57    58    1
    17    87    85   ar
    18    31    28    1
    19    31    32    1
    20    70    71    1
    21    71    72    1
    22    10     9    2
    23    72    74   am
    24     9     8    1
    25    28    29    1
    26    28    27    1
    27    29    30    2
    28    49    48    2
    29    81    79   ar
    30    81    83   ar
    31    39    45    1
    32    39    40    1
    33    16    17    1
    34    58    60   ar
    35    58    59   ar
    36    78    79    1
    37    78    75    1
    38    42    41    2
    39    19    18    2
    40    32    33   ar
    41    32    34   ar
    42    45    44    1
    43    41    40    1
    44    85    83   ar
    45    33    35   ar
    46    60    62   ar
    47    74    75    1
    48    79    80   ar
    49    75    76    1
    50    48    47    1
    51    83    82   ar
    52     8     7    1
    53     8    11    1
    54    40    43    1
    55    46    47    1
    56    59    61   ar
    57    34    36   ar
    58    18    17    1
    59    17    20    1
    60    44    43    1
    61    35    37   ar
    62    11    12    1
    63    47    50    1
    64    62    63   ar
    65    80    82   ar
    66    20    21    1
    67    21    22    1
    68    36    37   ar
    69    76    88   am
    70    76    77    2
    71    37    38    1
    72    61    63   ar
    73    88    89    1
    74    50    51    1
    75    50    52    1
    76    14    13    2
    77    97    95   ar
    78    97    98   ar
    79    95    93   ar
    80    12    13    1
    81    22    23    1
    82    13    15   am
    83    99    98    1
    84    89    92    1
    85    89    90    1
    86    98    96   ar
    87    93    92    1
    88    93    94   ar
    89    23    24    2
    90    91    90    2
    91    90   100   am
    92    96    94   ar
    93    25    24    1
    94    24    26    1
    95   100   101    1
    96     6     5    1
    97   115   114   ar
    98   101   102    1
    99   101   104    1
   100     5     2    1
   101   116   114   ar
   102   114   113    1
   103   135   133   am
   104   102   103    2
   105   104   105    1
   106   112   113    1
   107   112   109    1
   108     2     3    1
   109     2     1    1
   110   146   144    1
   111   133   132    1
   112   133   134    2
   113     3     4    2
   114   132   129    1
   115   105   106    1
   116   110   109    1
   117   110   111    2
   118   109   108    1
   119   144   143    2
   120   144   145    1
   121   106   107    1
   122   143   142    1
   123   129   130    1
   124   129   128    1
   125   130   131    2
   126   128   119   am
   127   142   141    1
   128   119   120    2
   129   119   118    1
   130   140   141    1
   131   140   137    1
   132   138   137    1
   133   138   139    2
   134   121   118    1
   135   121   122    1
   136   137   136    1
   137   117   118    1
   138   122   123    1
   139   126   125    1
   140   123   124    1
   141   125   124    2
   142   125   127    1
