@<TRIPOS>MOLECULE
tmp/1fooA00.pdb
 212 203 0 0 0
SMALL
GASTEIGER

@<TRIPOS>ATOM
      1  N         12.3930    1.0340   29.3580 N.3   114  TRP114     -0.1241
      2  CA        11.2150    1.7280   29.8500 C.3   114  TRP114      0.1605
      3  C         10.5410    0.7970   30.8550 C.2   114  TRP114      0.2264
      4  O         10.2450    1.1800   31.9880 O.2   114  TRP114     -0.2867
      5  CB        10.2880    2.0370   28.6750 C.3   114  TRP114      0.0550
      6  CG         9.0200    2.7580   29.0310 C.ar  114  TRP114      0.0003
      7  CD1        8.6790    3.2810   30.2450 C.ar  114  TRP114      0.0946
      8  CD2        7.9180    3.0210   28.1560 C.ar  114  TRP114      0.0152
      9  NE1        7.4330    3.8500   30.1800 N.ar  114  TRP114     -0.2442
     10  CE2        6.9390    3.7000   28.9080 C.ar  114  TRP114      0.0810
     11  CE3        7.6590    2.7430   26.8030 C.ar  114  TRP114      0.0012
     12  CZ2        5.7170    4.1090   28.3580 C.ar  114  TRP114      0.0191
     13  CZ3        6.4440    3.1510   26.2540 C.ar  114  TRP114      0.0001
     14  CH2        5.4890    3.8260   27.0330 C.ar  114  TRP114      0.0015
     15  N         12.2160    0.9110   34.1930 N.3   117  ALA117     -0.1245
     16  CA        12.2920    2.1850   34.9230 C.3   117  ALA117      0.1562
     17  C         11.4380    2.2200   36.1980 C.2   117  ALA117      0.2260
     18  O         10.2260    2.3720   36.1310 O.2   117  ALA117     -0.2867
     19  CB        11.8910    3.3270   33.9880 C.3   117  ALA117      0.0290
     20  N         10.8340    4.4840   38.4350 N.3   119  ARG119     -0.1231
     21  CA        10.0910    5.7000   38.7250 C.3   119  ARG119      0.1694
     22  C          8.9460    6.0600   37.7850 C.2   119  ARG119      0.2592
     23  O          8.2230    7.0210   38.0450 O.2   119  ARG119     -0.2718
     24  CB        11.0700    6.8800   38.8050 C.3   119  ARG119      0.0321
     25  CG        12.0670    6.7560   39.9480 C.3   119  ARG119      0.0489
     26  CD        13.1080    7.8700   39.9480 C.3   119  ARG119      0.2205
     27  NE        13.9360    7.8240   41.1530 N.pl3 119  ARG119     -0.0865
     28  CZ        14.9440    8.6560   41.4050 C.cat 119  ARG119      0.5346
     29  NH1       15.2650    9.6020   40.5340 N.pl3 119  ARG119      0.1354
     30  NH2       15.6200    8.5550   42.5420 N.pl3 119  ARG119      0.1354
     31  N          8.7720    5.2980   36.7080 N.am  120  CYS120     -0.1956
     32  CA         7.7230    5.5980   35.7420 C.3   120  CYS120      0.1843
     33  C          6.3850    4.9170   36.0390 C.2   120  CYS120      0.2625
     34  O          6.2910    3.6920   36.1070 O.2   120  CYS120     -0.2714
     35  CB         8.1900    5.2180   34.3320 C.3   120  CYS120      0.0997
     36  SG         7.0740    5.7960   33.0450 S.3   120  CYS120     -0.0797
     37  N          5.3440    5.7250   36.1940 N.am  121  VAL121     -0.1963
     38  CA         4.0200    5.1930   36.4750 C.3   121  VAL121      0.1727
     39  C          3.2780    4.8400   35.1870 C.2   121  VAL121      0.2616
     40  O          2.2190    4.2250   35.2360 O.2   121  VAL121     -0.2715
     41  CB         3.1760    6.2210   37.2920 C.3   121  VAL121      0.0290
     42  CG1        2.7920    7.4040   36.4110 C.3   121  VAL121      0.0023
     43  CG2        1.9470    5.5480   37.8830 C.3   121  VAL121      0.0023
     44  N          3.8260    5.2240   34.0340 N.am  122  GLY122     -0.1955
     45  CA         3.1490    4.9350   32.7780 C.3   122  GLY122      0.1869
     46  C          3.5940    3.6650   32.0690 C.2   122  GLY122      0.2309
     47  O          3.3320    3.4810   30.8750 O.2   122  GLY122     -0.2863
     48  N          2.0820    0.9470   29.2450 N.3   125  GLN125     -0.1245
     49  CA         2.1770    1.1810   27.8030 C.3   125  GLN125      0.1566
     50  C          3.5290    0.7520   27.2230 C.2   125  GLN125      0.2260
     51  O          3.7560    0.8970   26.0240 O.2   125  GLN125     -0.2867
     52  CB         1.9990    2.6810   27.5170 C.3   125  GLN125      0.0367
     53  CG         0.6750    3.2580   27.9670 C.3   125  GLN125      0.0905
     54  CD        -0.4240    2.9650   26.9810 C.2   125  GLN125      0.2608
     55  OE1       -1.6040    2.9770   27.3280 O.2   125  GLN125     -0.2717
     56  NE2       -0.0460    2.7100   25.7350 N.am  125  GLN125     -0.0878
     57  N          5.9300    1.2880   22.5440 N.3   129  LEU129     -0.1245
     58  CA         6.8740    2.3480   22.2230 C.3   129  LEU129      0.1561
     59  C          7.2910    2.3140   20.7480 C.2   129  LEU129      0.2260
     60  O          7.5520    1.2510   20.1940 O.2   129  LEU129     -0.2867
     61  CB         8.1030    2.1920   23.1130 C.3   129  LEU129      0.0270
     62  CG         9.2600    3.1800   22.9900 C.3   129  LEU129      0.0019
     63  CD1        8.8140    4.5610   23.4570 C.3   129  LEU129      0.0001
     64  CD2       10.4280    2.7010   23.8420 C.3   129  LEU129      0.0001
     65  N          3.7810    7.4190   22.2640 N.3   162  SER162     -0.1217
     66  CA         5.0650    7.2130   22.9100 C.3   162  SER162      0.1889
     67  C          6.1300    6.9550   21.8600 C.2   162  SER162      0.2288
     68  O          5.8980    6.2370   20.8920 O.2   162  SER162     -0.2866
     69  CB         5.0030    6.0140   23.8610 C.3   162  SER162      0.2089
     70  OG         3.9880    6.2130   24.8270 O.3   162  SER162     -0.2183
     71  N         10.7750    7.1310   21.0460 N.3   164  ILE164     -0.1245
     72  CA        12.1490    7.3590   21.4540 C.3   164  ILE164      0.1561
     73  C         12.9920    7.4070   20.1780 C.2   164  ILE164      0.2260
     74  O         12.7240    6.6870   19.2080 O.2   164  ILE164     -0.2867
     75  CB        12.6620    6.2350   22.4080 C.3   164  ILE164      0.0252
     76  CG1       14.1230    6.4960   22.7770 C.3   164  ILE164      0.0019
     77  CG2       12.5190    4.8490   21.7530 C.3   164  ILE164      0.0019
     78  CD1       14.6280    5.6100   23.8940 C.3   164  ILE164      0.0001
     79  N          5.9180   15.8300   26.8550 N.3   270  PRO270     -0.2116
     80  CA         6.9620   15.6780   27.8700 C.3   270  PRO270      0.1372
     81  C          8.0400   14.7730   27.2730 C.2   270  PRO270      0.2244
     82  O          7.8280   13.5670   27.1170 O.2   270  PRO270     -0.2868
     83  CB         6.2170   15.0160   29.0270 C.3   270  PRO270      0.0268
     84  CG         5.2650   14.1130   28.3150 C.3   270  PRO270      0.0207
     85  CD         4.7630   14.9610   27.1560 C.3   270  PRO270      0.0892
     86  N         11.8880   13.7430   27.9120 N.3   272  VAL272     -0.1245
     87  CA        13.1570   13.7360   28.6230 C.3   272  VAL272      0.1561
     88  C         14.2690   13.5330   27.6000 C.2   272  VAL272      0.2260
     89  O         14.2190   12.5910   26.8030 O.2   272  VAL272     -0.2867
     90  CB        13.1960   12.5950   29.6600 C.3   272  VAL272      0.0252
     91  CG1       14.5690   12.5210   30.3160 C.3   272  VAL272      0.0019
     92  CG2       12.1270   12.8260   30.6960 C.3   272  VAL272      0.0019
     93  N         18.8970   11.8490   29.5380 N.3   275  MET275     -0.1245
     94  CA        19.1990   10.5550   30.1240 C.3   275  MET275      0.1570
     95  C         19.9570    9.6370   29.1830 C.2   275  MET275      0.2261
     96  O         19.8810    9.7670   27.9650 O.2   275  MET275     -0.2867
     97  CB        17.9160    9.8830   30.5990 C.3   275  MET275      0.0387
     98  CG        17.2740   10.6240   31.7670 C.3   275  MET275      0.0595
     99  SD        15.9380    9.7220   32.5620 S.3   275  MET275     -0.1393
    100  CE        16.8810    8.6570   33.6220 C.3   275  MET275      0.0692
    101  N         13.2680   10.4940   24.7570 N.3   289  PHE289     -0.1227
    102  CA        12.0420    9.7120   24.7280 C.3   289  PHE289      0.1736
    103  C         10.8770   10.5600   25.2280 C.2   289  PHE289      0.2596
    104  O         11.0830   11.5350   25.9490 O.2   289  PHE289     -0.2718
    105  CB        12.2120    8.4510   25.5860 C.3   289  PHE289      0.0547
    106  CG        12.6180    8.7270   27.0090 C.ar  289  PHE289     -0.0202
    107  CD1       11.6630    9.0490   27.9670 C.ar  289  PHE289     -0.0042
    108  CD2       13.9490    8.6380   27.3940 C.ar  289  PHE289     -0.0042
    109  CE1       12.0250    9.2730   29.2880 C.ar  289  PHE289     -0.0003
    110  CE2       14.3290    8.8610   28.7190 C.ar  289  PHE289     -0.0003
    111  CZ        13.3680    9.1770   29.6680 C.ar  289  PHE289     -0.0000
    112  N          9.6590   10.1910   24.8380 N.am  290  SER290     -0.1938
    113  CA         8.4840   10.9330   25.2550 C.3   290  SER290      0.2055
    114  C          7.2220   10.0740   25.3020 C.2   290  SER290      0.2644
    115  O          7.0910    9.0710   24.5740 O.2   290  SER290     -0.2714
    116  CB         8.2500   12.1070   24.3070 C.3   290  SER290      0.2130
    117  OG         7.9580   11.6460   23.0010 O.3   290  SER290     -0.2179
    118  N          6.2960   10.4770   26.1720 N.am  291  GLY291     -0.1939
    119  CA         5.0280    9.7840   26.3100 C.3   291  GLY291      0.2014
    120  C          3.9760   10.8730   26.3380 C.2   291  GLY291      0.2638
    121  O          3.8510   11.6410   25.3850 O.2   291  GLY291     -0.2714
    122  N          3.2000   10.9230   27.4100 N.am  292  TRP292     -0.1973
    123  CA         2.2050   11.9690   27.5910 C.3   292  TRP292      0.1640
    124  C          2.1780   12.2530   29.0800 C.2   292  TRP292      0.2290
    125  O          2.6270   11.4320   29.8760 O.2   292  TRP292     -0.2864
    126  CB         0.8220   11.5710   27.0390 C.3   292  TRP292      0.0576
    127  CG         0.2580   10.2980   27.5350 C.ar  292  TRP292      0.0006
    128  CD1       -0.2980   10.0650   28.7600 C.ar  292  TRP292      0.0946
    129  CD2        0.1970    9.0610   26.8180 C.ar  292  TRP292      0.0152
    130  NE1       -0.7000    8.7530   28.8480 N.ar  292  TRP292     -0.2442
    131  CE2       -0.4070    8.1140   27.6710 C.ar  292  TRP292      0.0810
    132  CE3        0.5970    8.6610   25.5360 C.ar  292  TRP292      0.0012
    133  CZ2       -0.6220    6.7880   27.2860 C.ar  292  TRP292      0.0191
    134  CZ3        0.3820    7.3380   25.1480 C.ar  292  TRP292      0.0001
    135  CH2       -0.2220    6.4170   26.0260 C.ar  292  TRP292      0.0015
    136  N          1.0100   13.1250   33.0330 N.3   294  MET294     -0.1245
    137  CA         0.0870   12.7050   34.0650 C.3   294  MET294      0.1570
    138  C         -0.1580   14.1010   34.6490 C.2   294  MET294      0.2261
    139  O          0.7990   14.8220   34.9550 O.2   294  MET294     -0.2867
    140  CB         0.7310   11.8160   35.1160 C.3   294  MET294      0.0387
    141  CG        -0.1630   11.7200   36.3630 C.3   294  MET294      0.0595
    142  SD         0.2950   10.4650   37.5040 S.3   294  MET294     -0.1393
    143  CE         1.5230   11.3550   38.4520 C.3   294  MET294      0.0692
    144  N          1.9540   16.2130   37.2650 N.3   297  GLU297     -0.1245
    145  CA         3.2960   16.6500   36.8830 C.3   297  GLU297      0.1567
    146  C          3.2570   18.1420   36.5850 C.2   297  GLU297      0.2260
    147  O          4.1490   18.9050   36.9810 O.2   297  GLU297     -0.2867
    148  CB         3.7650   15.9080   35.6270 C.3   297  GLU297      0.0388
    149  CG         4.1310   14.4570   35.8420 C.3   297  GLU297      0.1160
    150  CD         4.6150   13.7860   34.5540 C.2   297  GLU297      0.3649
    151  OE1        3.7630   13.3310   33.7480 O.co2 297  GLU297     -0.2457
    152  OE2        5.8550   13.7290   34.3490 O.co2 297  GLU297     -0.2457
    153  N          3.4800   19.6680   40.5780 N.3   301  ARG301     -0.1245
    154  CA         4.9260   19.8810   40.6300 C.3   301  ARG301      0.1563
    155  C          5.4230   21.1300   39.8980 C.2   301  ARG301      0.2260
    156  O          5.9400   22.0520   40.5250 O.2   301  ARG301     -0.2867
    157  CB         5.6590   18.6330   40.1130 C.3   301  ARG301      0.0307
    158  CG         5.3600   17.3440   40.9080 C.3   301  ARG301      0.0489
    159  CD         5.5400   17.5280   42.4330 C.3   301  ARG301      0.2205
    160  NE         6.8840   17.9890   42.7760 N.pl3 301  ARG301     -0.0865
    161  CZ         7.9820   17.2450   42.6830 C.cat 301  ARG301      0.5346
    162  NH1        7.9070   15.9840   42.2690 N.pl3 301  ARG301      0.1354
    163  NH2        9.1660   17.7760   42.9580 N.pl3 301  ARG301      0.1354
    164  N         -3.3840   12.1170   31.3920 N.3   354  VAL354     -0.1245
    165  CA        -3.9860   11.1430   32.2940 C.3   354  VAL354      0.1561
    166  C         -3.9340   11.6660   33.7320 C.2   354  VAL354      0.2260
    167  O         -2.8790   12.1100   34.2060 O.2   354  VAL354     -0.2867
    168  CB        -3.2700    9.7630   32.1770 C.3   354  VAL354      0.0252
    169  CG1       -1.8170    9.8810   32.6040 C.3   354  VAL354      0.0019
    170  CG2       -4.0030    8.7140   33.0080 C.3   354  VAL354      0.0019
    171  N         -4.0960    6.9920   36.2220 N.3   359  ALA359     -0.1245
    172  CA        -2.7260    6.5350   36.0620 C.3   359  ALA359      0.1562
    173  C         -2.3240    5.4670   37.0770 C.2   359  ALA359      0.2260
    174  O         -1.7520    4.4390   36.7080 O.2   359  ALA359     -0.2867
    175  CB        -1.7740    7.7180   36.1450 C.3   359  ALA359      0.0290
    176  N          8.2260    7.9500   44.1030 N.3   383  TRP383     -0.1241
    177  CA         8.0120    8.5490   42.7900 C.3   383  TRP383      0.1605
    178  C          6.7260    8.0840   42.1160 C.2   383  TRP383      0.2264
    179  O          6.1790    8.7790   41.2640 O.2   383  TRP383     -0.2867
    180  CB         9.1910    8.2470   41.8700 C.3   383  TRP383      0.0550
    181  CG        10.3980    9.0720   42.1510 C.ar  383  TRP383      0.0003
    182  CD1       11.1830    9.0380   43.2690 C.ar  383  TRP383      0.0946
    183  CD2       10.9720   10.0520   41.2840 C.ar  383  TRP383      0.0152
    184  NE1       12.2130    9.9400   43.1490 N.ar  383  TRP383     -0.2442
    185  CE2       12.1070   10.5740   41.9410 C.ar  383  TRP383      0.0810
    186  CE3       10.6350   10.5430   40.0140 C.ar  383  TRP383      0.0012
    187  CZ2       12.9100   11.5640   41.3670 C.ar  383  TRP383      0.0191
    188  CZ3       11.4320   11.5270   39.4420 C.ar  383  TRP383      0.0001
    189  CH2       12.5590   12.0270   40.1220 C.ar  383  TRP383      0.0015
    190  N         17.6020    3.2320   31.8310 N.3   409  PHE409     -0.1241
    191  CA        17.8220    4.6410   31.5690 C.3   409  PHE409      0.1605
    192  C         18.5590    5.0860   32.8380 C.2   409  PHE409      0.2264
    193  O         18.2050    4.6740   33.9410 O.2   409  PHE409     -0.2867
    194  CB        16.4860    5.3850   31.4280 C.3   409  PHE409      0.0534
    195  CG        15.7850    5.1410   30.1140 C.ar  409  PHE409     -0.0203
    196  CD1       14.6570    4.3380   30.0480 C.ar  409  PHE409     -0.0042
    197  CD2       16.2560    5.7280   28.9480 C.ar  409  PHE409     -0.0042
    198  CE1       14.0030    4.1270   28.8330 C.ar  409  PHE409     -0.0003
    199  CE2       15.6150    5.5260   27.7280 C.ar  409  PHE409     -0.0003
    200  CZ        14.4860    4.7250   27.6660 C.ar  409  PHE409     -0.0000
    201  N         20.9930    8.4670   34.8220 N.3   411  TYR411     -0.1241
    202  CA        21.3630    9.8680   34.7930 C.3   411  TYR411      0.1605
    203  C         22.8090    9.8880   34.3300 C.2   411  TYR411      0.2264
    204  O         23.5370    8.9180   34.5190 O.2   411  TYR411     -0.2867
    205  CB        21.2700   10.4800   36.1870 C.3   411  TYR411      0.0534
    206  CG        19.8600   10.6380   36.6820 C.ar  411  TYR411     -0.0201
    207  CD1       18.9250   11.3560   35.9440 C.ar  411  TYR411     -0.0009
    208  CD2       19.4700   10.1100   37.9080 C.ar  411  TYR411     -0.0009
    209  CE1       17.6300   11.5570   36.4130 C.ar  411  TYR411      0.0417
    210  CE2       18.1770   10.3020   38.3970 C.ar  411  TYR411      0.0417
    211  CZ        17.2720   11.0300   37.6370 C.ar  411  TYR411      0.1957
    212  OH        16.0030   11.2560   38.1160 O.3   411  TYR411     -0.2866
@<TRIPOS>BOND
     1    74    73    2
     2    73    72    1
     3    60    59    2
     4    59    58    1
     5    68    67    2
     6    71    72    1
     7    72    75    1
     8    77    75    1
     9    67    66    1
    10    58    57    1
    11    58    61    1
    12    65    66    1
    13    75    76    1
    14    76    78    1
    15    66    69    1
    16    62    61    1
    17    62    63    1
    18    62    64    1
    19   117   116    1
    20    69    70    1
    21   116   113    1
    22   115   114    2
    23   102   101    1
    24   102   103    1
    25   102   105    1
    26   112   103   am
    27   112   113    1
    28   134   132   ar
    29   134   135   ar
    30   103   104    2
    31   113   114    1
    32   114   118   am
    33   121   120    2
    34   132   129   ar
    35   105   106    1
    36    56    54   am
    37    51    50    2
    38   135   133   ar
    39   118   119    1
    40    13    11   ar
    41    13    14   ar
    42   119   120    1
    43   120   122   am
    44    89    88    2
    45    11     8   ar
    46   129   127   ar
    47   129   131   ar
    48    79    85    1
    49    79    80    1
    50    54    55    2
    51    54    53    1
    52   106   108   ar
    53   106   107   ar
    54    14    12   ar
    55   126   127    1
    56   126   123    1
    57    82    81    2
    58    85    84    1
    59    50    49    1
    60    81    80    1
    61   133   131   ar
    62   108   110   ar
    63   122   123    1
    64    52    49    1
    65    52    53    1
    66   127   128   ar
    67   123   124    1
    68    88    87    1
    69   200   199   ar
    70   200   198   ar
    71   131   130   ar
    72   199   197   ar
    73    49    48    1
    74    80    83    1
    75    86    87    1
    76    96    95    2
    77   107   109   ar
    78     8    10   ar
    79     8     6   ar
    80    84    83    1
    81    12    10   ar
    82    87    90    1
    83     5     6    1
    84     5     2    1
    85   110   111   ar
    86   128   130   ar
    87   198   196   ar
    88    10     9   ar
    89   197   195   ar
    90     6     7   ar
    91   124   125    2
    92    95    94    1
    93   109   111   ar
    94     1     2    1
    95    93    94    1
    96    90    91    1
    97    90    92    1
    98     2     3    1
    99   196   195   ar
   100   195   194    1
   101    94    97    1
   102     9     7   ar
   103    97    98    1
   104     3     4    2
   105    47    46    2
   106   164   165    1
   107   194   191    1
   108   191   190    1
   109   191   192    1
   110    98    99    1
   111    46    45    1
   112   168   165    1
   113   168   169    1
   114   168   170    1
   115   165   166    1
   116    99   100    1
   117    45    44    1
   118   192   193    2
   119   136   137    1
   120    36    35    1
   121   166   167    2
   122   151   150   ar
   123    19    16    1
   124    44    39   am
   125   137   138    1
   126   137   140    1
   127    15    16    1
   128   203   204    2
   129   203   202    1
   130    35    32    1
   131   152   150   ar
   132   150   149    1
   133   138   139    2
   134   202   201    1
   135   202   205    1
   136    16    17    1
   137   140   141    1
   138    39    40    2
   139    39    38    1
   140   148   149    1
   141   148   145    1
   142    32    33    1
   143    32    31    1
   144   207   209   ar
   145   207   206   ar
   146    33    34    2
   147    33    37   am
   148   172   175    1
   149   172   171    1
   150   172   173    1
   151    18    17    2
   152   205   206    1
   153    37    38    1
   154   141   142    1
   155    42    41    1
   156   209   211   ar
   157    38    41    1
   158   146   145    1
   159   146   147    2
   160   206   208   ar
   161    31    22   am
   162   174   173    2
   163   145   144    1
   164    41    43    1
   165   142   143    1
   166   211   212    1
   167   211   210   ar
   168    22    23    2
   169    22    21    1
   170   208   210   ar
   171    20    21    1
   172    21    24    1
   173    24    25    1
   174   188   186   ar
   175   188   189   ar
   176   155   156    2
   177   155   154    1
   178    26    25    1
   179    26    27    1
   180   186   183   ar
   181   157   154    1
   182   157   158    1
   183   189   187   ar
   184    29    28    1
   185   153   154    1
   186   158   159    1
   187    27    28    2
   188   179   178    2
   189   183   185   ar
   190   183   181   ar
   191   187   185   ar
   192    28    30    1
   193   180   181    1
   194   180   177    1
   195   185   184   ar
   196   178   177    1
   197   181   182   ar
   198   162   161    1
   199   159   160    1
   200   161   160    2
   201   161   163    1
   202   177   176    1
   203   184   182   ar
