@<TRIPOS>MOLECULE
tmp/1fp2A01.pdb
 162 158 0 0 0
SMALL
GASTEIGER

@<TRIPOS>ATOM
      1  N         -8.0680    9.9630   17.1050 N.3   110  CYS110     -0.1221
      2  CA        -9.2970   10.7060   17.1920 C.3   110  CYS110      0.1808
      3  C        -10.0440   10.4940   18.5260 C.2   110  CYS110      0.2601
      4  O        -10.4120   11.4160   19.2230 O.2   110  CYS110     -0.2717
      5  CB       -10.2200   10.3040   16.0120 C.3   110  CYS110      0.0970
      6  SG       -11.9050   11.1100   16.0840 S.3   110  CYS110     -0.0800
      7  N        -10.3070    9.2470   18.8380 N.am  111  VAL111     -0.1979
      8  CA       -11.0620    8.9150   20.0290 C.3   111  VAL111      0.1595
      9  C        -10.3600    9.3820   21.3060 C.2   111  VAL111      0.2287
     10  O        -11.0110    9.8000   22.2590 O.2   111  VAL111     -0.2864
     11  CB       -11.2620    7.3570   20.0820 C.3   111  VAL111      0.0276
     12  CG1      -11.8370    6.8870   21.4320 C.3   111  VAL111      0.0022
     13  CG2      -12.1920    6.9270   18.9480 C.3   111  VAL111      0.0022
     14  N        -12.4730   15.0800   23.8910 N.3   116  LEU116     -0.1231
     15  CA       -13.5220   14.1160   23.6000 C.3   116  LEU116      0.1693
     16  C        -13.5750   12.9720   24.6080 C.2   116  LEU116      0.2592
     17  O        -14.6080   12.6890   25.2120 O.2   116  LEU116     -0.2718
     18  CB       -13.4100   13.6050   22.1350 C.3   116  LEU116      0.0284
     19  CG       -13.4320   14.6910   21.0190 C.3   116  LEU116      0.0019
     20  CD1      -13.4980   14.0290   19.6310 C.3   116  LEU116      0.0001
     21  CD2      -14.6350   15.5930   21.2010 C.3   116  LEU116      0.0001
     22  N        -12.4450   12.3120   24.8380 N.am  117  SER117     -0.1952
     23  CA       -12.4310   11.1920   25.7750 C.3   117  SER117      0.1924
     24  C        -12.6390   11.6610   27.2100 C.2   117  SER117      0.2314
     25  O        -13.2570   10.9680   28.0130 O.2   117  SER117     -0.2863
     26  CB       -11.1290   10.3770   25.6380 C.3   117  SER117      0.2116
     27  OG        -9.9910   11.1320   26.0150 O.3   117  SER117     -0.2180
     28  N        -16.1140   11.7710   29.1970 N.3   120  TYR120     -0.1241
     29  CA       -16.7330   10.6600   29.8960 C.3   120  TYR120      0.1605
     30  C        -16.6200   10.8130   31.4190 C.2   120  TYR120      0.2264
     31  O        -17.1750   10.0110   32.1440 O.2   120  TYR120     -0.2867
     32  CB       -16.2020    9.3410   29.3490 C.3   120  TYR120      0.0534
     33  CG       -16.7090    9.0490   27.9270 C.ar  120  TYR120     -0.0201
     34  CD1      -16.1820    9.7260   26.8420 C.ar  120  TYR120     -0.0009
     35  CD2      -17.7380    8.1240   27.7260 C.ar  120  TYR120     -0.0009
     36  CE1      -16.6790    9.4810   25.5410 C.ar  120  TYR120      0.0417
     37  CE2      -18.2720    7.8760   26.4100 C.ar  120  TYR120      0.0417
     38  CZ       -17.7180    8.5570   25.3490 C.ar  120  TYR120      0.1957
     39  OH       -18.1740    8.3660   24.0380 O.3   120  TYR120     -0.2866
     40  N        -21.5480   14.5260   24.4700 N.3   135  PHE135     -0.1241
     41  CA       -20.7510   15.5930   23.8970 C.3   135  PHE135      0.1605
     42  C        -21.4410   16.9490   24.0050 C.2   135  PHE135      0.2264
     43  O        -20.7780   17.9700   24.1190 O.2   135  PHE135     -0.2867
     44  CB       -20.3700   15.3050   22.4170 C.3   135  PHE135      0.0534
     45  CG       -19.2730   14.2940   22.2440 C.ar  135  PHE135     -0.0203
     46  CD1      -18.9520   13.8120   20.9690 C.ar  135  PHE135     -0.0042
     47  CD2      -18.5320   13.8280   23.3340 C.ar  135  PHE135     -0.0042
     48  CE1      -17.9270   12.8990   20.7700 C.ar  135  PHE135     -0.0003
     49  CE2      -17.4920   12.8960   23.1390 C.ar  135  PHE135     -0.0003
     50  CZ       -17.1910   12.4350   21.8760 C.ar  135  PHE135     -0.0000
     51  N        -22.3620   17.8480   18.3900 N.3   143  PHE143     -0.1227
     52  CA       -21.1210   17.4010   17.7600 C.3   143  PHE143      0.1736
     53  C        -20.8880   17.9050   16.3130 C.2   143  PHE143      0.2595
     54  O        -19.7900   18.2990   15.9640 O.2   143  PHE143     -0.2718
     55  CB       -21.0400   15.8670   17.7970 C.3   143  PHE143      0.0547
     56  CG       -19.7310   15.2990   17.3340 C.ar  143  PHE143     -0.0202
     57  CD1      -18.5390   15.5700   18.0240 C.ar  143  PHE143     -0.0042
     58  CD2      -19.6670   14.4460   16.2260 C.ar  143  PHE143     -0.0042
     59  CE1      -17.3530   15.0220   17.6510 C.ar  143  PHE143     -0.0003
     60  CE2      -18.4750   13.8730   15.8300 C.ar  143  PHE143     -0.0003
     61  CZ       -17.2910   14.1500   16.5380 C.ar  143  PHE143     -0.0000
     62  N        -21.9080   17.8610   15.4640 N.am  144  TRP144     -0.1976
     63  CA       -21.6590   18.2730   14.0990 C.3   144  TRP144      0.1640
     64  C        -21.3560   19.7580   13.9920 C.2   144  TRP144      0.2290
     65  O        -20.4680   20.1400   13.2470 O.2   144  TRP144     -0.2864
     66  CB       -22.8510   17.8410   13.2000 C.3   144  TRP144      0.0576
     67  CG       -23.2240   16.3740   13.4370 C.ar  144  TRP144      0.0006
     68  CD1      -24.3380   15.9020   14.0610 C.ar  144  TRP144      0.0946
     69  CD2      -22.3830   15.2200   13.2080 C.ar  144  TRP144      0.0152
     70  NE1      -24.2400   14.5390   14.2610 N.ar  144  TRP144     -0.2442
     71  CE2      -23.0490   14.0940   13.7490 C.ar  144  TRP144      0.0810
     72  CE3      -21.1210   15.0500   12.6160 C.ar  144  TRP144      0.0012
     73  CZ2      -22.4730   12.7820   13.7150 C.ar  144  TRP144      0.0191
     74  CZ3      -20.5560   13.7890   12.5880 C.ar  144  TRP144      0.0001
     75  CH2      -21.2330   12.6700   13.1390 C.ar  144  TRP144      0.0015
     76  N        -11.6440   13.5980   12.8210 N.3   157  PHE157     -0.1241
     77  CA       -12.8260   12.7540   12.6960 C.3   157  PHE157      0.1605
     78  C        -12.8870   12.1620   11.2720 C.2   157  PHE157      0.2264
     79  O        -13.1530   10.9760   11.1300 O.2   157  PHE157     -0.2867
     80  CB       -14.1120   13.5620   12.9590 C.3   157  PHE157      0.0534
     81  CG       -15.3660   12.7350   12.8510 C.ar  157  PHE157     -0.0203
     82  CD1      -15.6620   11.8040   13.8420 C.ar  157  PHE157     -0.0042
     83  CD2      -16.2010   12.8450   11.7540 C.ar  157  PHE157     -0.0042
     84  CE1      -16.8110   10.9690   13.7390 C.ar  157  PHE157     -0.0003
     85  CE2      -17.3380   12.0370   11.6330 C.ar  157  PHE157     -0.0003
     86  CZ       -17.6340   11.1140   12.6200 C.ar  157  PHE157     -0.0000
     87  N        -12.9020    8.1960   10.3510 N.3   161  MET161     -0.1245
     88  CA       -13.9270    7.5000    9.5500 C.3   161  MET161      0.1570
     89  C        -13.3070    6.8720    8.3030 C.2   161  MET161      0.2261
     90  O        -13.7370    5.7970    7.8630 O.2   161  MET161     -0.2867
     91  CB       -15.0200    8.4930    9.1400 C.3   161  MET161      0.0387
     92  CG       -15.9080    8.9690   10.2930 C.3   161  MET161      0.0595
     93  SD       -16.5500    7.7120   11.3650 S.3   161  MET161     -0.1393
     94  CE       -17.5480    6.8210   10.1690 C.3   161  MET161      0.0692
     95  N        -23.1000    3.9000    8.9190 N.3   247  TYR247     -0.1241
     96  CA       -22.6820    4.4960   10.2170 C.3   247  TYR247      0.1605
     97  C        -23.4870    5.7680   10.5560 C.2   247  TYR247      0.2264
     98  O        -22.9270    6.7420   11.1290 O.2   247  TYR247     -0.2867
     99  CB       -21.2050    4.8490   10.1480 C.3   247  TYR247      0.0534
    100  CG       -20.2310    3.7270   10.3450 C.ar  247  TYR247     -0.0201
    101  CD1      -19.0750    3.7050    9.6010 C.ar  247  TYR247     -0.0009
    102  CD2      -20.3900    2.8060   11.3810 C.ar  247  TYR247     -0.0009
    103  CE1      -18.0400    2.8040    9.8760 C.ar  247  TYR247      0.0417
    104  CE2      -19.3510    1.8740   11.6640 C.ar  247  TYR247      0.0417
    105  CZ       -18.2040    1.8990   10.9230 C.ar  247  TYR247      0.1957
    106  OH       -17.2030    1.0240   11.2570 O.3   247  TYR247     -0.2866
    107  N        -26.7060    4.5360   14.1440 N.3   250  HIS250     -0.1226
    108  CA       -26.2210    4.2580   15.5080 C.3   250  HIS250      0.1752
    109  C        -25.8240    5.5410   16.2390 C.2   250  HIS250      0.2592
    110  O        -25.5010    5.4800   17.4480 O.2   250  HIS250     -0.2718
    111  CB       -25.0330    3.2850   15.4690 C.3   250  HIS250      0.0759
    112  CG       -23.7430    3.8840   15.0220 C.ar  250  HIS250      0.0818
    113  ND1      -22.5220    3.4730   15.5490 N.ar  250  HIS250     -0.2268
    114  CD2      -23.4490    4.8380   14.0970 C.ar  250  HIS250      0.1154
    115  CE1      -21.5510    4.1440   14.9520 C.ar  250  HIS250      0.1986
    116  NE2      -22.0820    4.9770   14.0670 N.ar  250  HIS250     -0.2212
    117  N        -25.8240    6.6870   15.5500 N.am  251  ASN251     -0.2028
    118  CA       -25.4640    7.9700   16.1750 C.3   251  ASN251      0.1374
    119  C        -26.7060    8.6990   16.6990 C.3   251  ASN251      0.2041
    120  O        -26.5810    9.9270   17.0680 O.3   251  ASN251     -0.2185
    121  CB       -24.8320    8.9780   15.1620 C.3   251  ASN251      0.1128
    122  CG       -23.5550    8.5210   14.5320 C.2   251  ASN251      0.2626
    123  OD1      -23.3850    8.7030   13.3100 O.2   251  ASN251     -0.2716
    124  ND2      -22.6550    8.0220   15.2930 N.am  251  ASN251     -0.0877
    125  N        -19.0650   -0.7170   22.3930 N.3   300  MET300     -0.1245
    126  CA       -19.3430    0.3970   21.4730 C.3   300  MET300      0.1570
    127  C        -20.6910    1.0260   21.8580 C.2   300  MET300      0.2261
    128  O        -20.8720    2.2530   21.7630 O.2   300  MET300     -0.2867
    129  CB       -19.4250   -0.0960   20.0160 C.3   300  MET300      0.0387
    130  CG       -18.1210   -0.3230   19.3000 C.3   300  MET300      0.0595
    131  SD       -17.1380    1.2150   19.0280 S.3   300  MET300     -0.1393
    132  CE       -18.2000    2.3040   18.8830 C.3   300  MET300      0.0692
    133  N        -20.1400    3.3650   24.6030 N.3   303  ASN303     -0.1225
    134  CA       -19.3960    4.5190   24.0730 C.3   303  ASN303      0.1785
    135  C        -20.2790    5.5300   23.3050 C.2   303  ASN303      0.2597
    136  O        -19.9760    6.6920   23.2750 O.2   303  ASN303     -0.2718
    137  CB       -18.2840    3.9990   23.1350 C.3   303  ASN303      0.1169
    138  CG       -17.5540    5.1080   22.4050 C.2   303  ASN303      0.2627
    139  OD1      -17.6130    5.2320   21.1520 O.2   303  ASN303     -0.2716
    140  ND2      -16.9120    5.9550   23.1440 N.am  303  ASN303     -0.0877
    141  N        -21.3640    5.0420   22.7090 N.am  304  MET304     -0.1979
    142  CA       -22.2380    5.9360   21.9400 C.3   304  MET304      0.1605
    143  C        -23.0060    6.9800   22.7450 C.2   304  MET304      0.2287
    144  O        -23.7360    7.7910   22.1590 O.2   304  MET304     -0.2864
    145  CB       -23.1890    5.1260   21.0620 C.3   304  MET304      0.0413
    146  CG       -22.4930    4.4220   19.8980 C.3   304  MET304      0.0598
    147  SD       -21.2550    5.3970   18.9380 S.3   304  MET304     -0.1393
    148  CE       -22.3540    6.5080   18.2820 C.3   304  MET304      0.0692
    149  N        -21.7970    9.4240   23.7630 N.3   306  CYS306     -0.1221
    150  CA       -21.3090   10.6720   23.1660 C.3   306  CYS306      0.1808
    151  C        -22.3780   11.3940   22.3380 C.2   306  CYS306      0.2601
    152  O        -22.4510   12.6060   22.3570 O.2   306  CYS306     -0.2717
    153  CB       -20.0750   10.4370   22.2580 C.3   306  CYS306      0.0970
    154  SG       -20.2680    9.2390   20.8350 S.3   306  CYS306     -0.0800
    155  N        -23.1790   10.6370   21.5770 N.am  307  LEU307     -0.1979
    156  CA       -24.2180   11.2590   20.7330 C.3   307  LEU307      0.1596
    157  C        -25.6230   10.7620   21.0820 C.2   307  LEU307      0.2287
    158  O        -26.5550   10.8820   20.2640 O.2   307  LEU307     -0.2864
    159  CB       -23.9210   10.9030   19.2550 C.3   307  LEU307      0.0297
    160  CG       -22.5780   11.3370   18.7240 C.3   307  LEU307      0.0022
    161  CD1      -22.2680   10.8210   17.2720 C.3   307  LEU307      0.0001
    162  CD2      -22.6100   12.8700   18.7280 C.3   307  LEU307      0.0001
@<TRIPOS>BOND
     1    90    89    2
     2    89    88    1
     3    95    96    1
     4    91    88    1
     5    91    92    1
     6    88    87    1
     7   101   103   ar
     8   101   100   ar
     9   103   105   ar
    10    99    96    1
    11    99   100    1
    12    94    93    1
    13    96    97    1
    14    92    93    1
    15   100   102   ar
    16    97    98    2
    17   105   106    1
    18   105   104   ar
    19    79    78    2
    20    78    77    1
    21   102   104   ar
    22    85    83   ar
    23    85    86   ar
    24    83    81   ar
    25    74    72   ar
    26    74    75   ar
    27    72    69   ar
    28    86    84   ar
    29    77    76    1
    30    77    80    1
    31    81    80    1
    32    81    82   ar
    33    75    73   ar
    34    66    67    1
    35    66    63    1
    36    69    67   ar
    37    69    71   ar
    38    65    64    2
    39   123   122    2
    40    67    68   ar
    41    73    71   ar
    42    84    82   ar
    43    71    70   ar
    44    64    63    1
    45    68    70   ar
    46   116   114   ar
    47   116   115   ar
    48   114   112   ar
    49    63    62    1
    50   107   108    1
    51   122   121    1
    52   122   124   am
    53   115   113   ar
    54   112   111    1
    55   112   113   ar
    56   121   118    1
    57    62    53   am
    58   111   108    1
    59   108   109    1
    60   117   118    1
    61   117   109   am
    62    60    58   ar
    63    60    61   ar
    64    54    53    2
    65     5     6    1
    66     5     2    1
    67   118   119    1
    68    58    56   ar
    69   109   110    2
    70    53    52    1
    71    61    59   ar
    72   119   120    1
    73     1     2    1
    74     2     3    1
    75   161   160    1
    76    56    55    1
    77    56    57   ar
    78    59    57   ar
    79    52    55    1
    80    52    51    1
    81   148   147    1
    82     3     7   am
    83     3     4    2
    84   160   162    1
    85   160   159    1
    86     7     8    1
    87   132   131    1
    88   147   146    1
    89    13    11    1
    90   131   130    1
    91   159   156    1
    92   130   129    1
    93    20    19    1
    94   146   145    1
    95   129   126    1
    96     8    11    1
    97     8     9    1
    98    11    12    1
    99   158   157    2
   100   156   157    1
   101   156   155    1
   102    48    46   ar
   103    48    50   ar
   104   154   153    1
   105    46    45   ar
   106    19    21    1
   107    19    18    1
   108   145   142    1
   109   139   138    2
   110     9    10    2
   111   126   127    1
   112   126   125    1
   113   155   151   am
   114   128   127    2
   115    50    49   ar
   116   142   141    1
   117   142   143    1
   118    18    15    1
   119   144   143    2
   120    45    44    1
   121    45    47   ar
   122   153   150    1
   123   151   152    2
   124   151   150    1
   125   138   137    1
   126   138   140   am
   127    44    41    1
   128   141   135   am
   129   137   134    1
   130    49    47   ar
   131   150   149    1
   132   136   135    2
   133   135   134    1
   134    15    14    1
   135    15    16    1
   136    41    42    1
   137    41    40    1
   138    42    43    2
   139    39    38    1
   140   134   133    1
   141    16    22   am
   142    16    17    2
   143    22    23    1
   144    38    36   ar
   145    38    37   ar
   146    36    34   ar
   147    26    23    1
   148    26    27    1
   149    23    24    1
   150    37    35   ar
   151    34    33   ar
   152    24    25    2
   153    35    33   ar
   154    33    32    1
   155    28    29    1
   156    32    29    1
   157    29    30    1
   158    30    31    2
