@<TRIPOS>MOLECULE
tmp/1fp2A00.pdb
 131 129 0 0 0
SMALL
GASTEIGER

@<TRIPOS>ATOM
      1  N        -21.9080   17.8610   15.4640 N.3   144  TRP144     -0.1241
      2  CA       -21.6590   18.2730   14.0990 C.3   144  TRP144      0.1605
      3  C        -21.3560   19.7580   13.9920 C.2   144  TRP144      0.2264
      4  O        -20.4680   20.1400   13.2470 O.2   144  TRP144     -0.2867
      5  CB       -22.8510   17.8410   13.2000 C.3   144  TRP144      0.0550
      6  CG       -23.2240   16.3740   13.4370 C.ar  144  TRP144      0.0003
      7  CD1      -24.3380   15.9020   14.0610 C.ar  144  TRP144      0.0946
      8  CD2      -22.3830   15.2200   13.2080 C.ar  144  TRP144      0.0152
      9  NE1      -24.2400   14.5390   14.2610 N.ar  144  TRP144     -0.2442
     10  CE2      -23.0490   14.0940   13.7490 C.ar  144  TRP144      0.0810
     11  CE3      -21.1210   15.0500   12.6160 C.ar  144  TRP144      0.0012
     12  CZ2      -22.4730   12.7820   13.7150 C.ar  144  TRP144      0.0191
     13  CZ3      -20.5560   13.7890   12.5880 C.ar  144  TRP144      0.0001
     14  CH2      -21.2330   12.6700   13.1390 C.ar  144  TRP144      0.0015
     15  N        -11.6440   13.5980   12.8210 N.3   157  PHE157     -0.1241
     16  CA       -12.8260   12.7540   12.6960 C.3   157  PHE157      0.1605
     17  C        -12.8870   12.1620   11.2720 C.2   157  PHE157      0.2264
     18  O        -13.1530   10.9760   11.1300 O.2   157  PHE157     -0.2867
     19  CB       -14.1120   13.5620   12.9590 C.3   157  PHE157      0.0534
     20  CG       -15.3660   12.7350   12.8510 C.ar  157  PHE157     -0.0203
     21  CD1      -15.6620   11.8040   13.8420 C.ar  157  PHE157     -0.0042
     22  CD2      -16.2010   12.8450   11.7540 C.ar  157  PHE157     -0.0042
     23  CE1      -16.8110   10.9690   13.7390 C.ar  157  PHE157     -0.0003
     24  CE2      -17.3380   12.0370   11.6330 C.ar  157  PHE157     -0.0003
     25  CZ       -17.6340   11.1140   12.6200 C.ar  157  PHE157     -0.0000
     26  N        -25.9270   11.2270    4.6220 N.3   189  GLY189     -0.1225
     27  CA       -24.7920   11.3750    5.5740 C.3   189  GLY189      0.1811
     28  C        -23.5530   10.7790    4.8880 C.2   189  GLY189      0.2280
     29  O        -22.6960   10.1910    5.5790 O.2   189  GLY189     -0.2866
     30  N        -20.8620   11.9520    3.8040 N.3   191  GLY191     -0.1225
     31  CA       -19.5380   12.5500    4.0210 C.3   191  GLY191      0.1811
     32  C        -18.9560   13.2960    2.8200 C.2   191  GLY191      0.2280
     33  O        -19.6460   14.0950    2.1400 O.2   191  GLY191     -0.2866
     34  N        -25.1170   12.9730   -0.1300 N.3   211  PHE211     -0.1227
     35  CA       -25.9370   13.9400    0.5760 C.3   211  PHE211      0.1736
     36  C        -25.4240   14.1390    1.9980 C.2   211  PHE211      0.2595
     37  O        -25.2940   13.1670    2.7560 O.2   211  PHE211     -0.2718
     38  CB       -27.3940   13.4280    0.5970 C.3   211  PHE211      0.0547
     39  CG       -28.3640   14.3120    1.3260 C.ar  211  PHE211     -0.0202
     40  CD1      -28.8380   15.4470    0.7460 C.ar  211  PHE211     -0.0042
     41  CD2      -28.7980   13.9760    2.5900 C.ar  211  PHE211     -0.0042
     42  CE1      -29.7620   16.2750    1.4260 C.ar  211  PHE211     -0.0003
     43  CE2      -29.7150   14.7630    3.2880 C.ar  211  PHE211     -0.0003
     44  CZ       -30.2040   15.9310    2.6910 C.ar  211  PHE211     -0.0000
     45  N        -25.0810   15.3660    2.3740 N.am  212  ASP212     -0.1960
     46  CA       -24.6000   15.5760    3.7340 C.3   212  ASP212      0.1840
     47  C        -24.8740   17.0830    4.0290 C.2   212  ASP212      0.2621
     48  O        -25.5290   17.7730    3.2370 O.2   212  ASP212     -0.2715
     49  CB       -23.0920   15.2080    3.8740 C.3   212  ASP212      0.1450
     50  CG       -22.7170   14.7830    5.3070 C.2   212  ASP212      0.3671
     51  OD1      -22.7990   15.6870    6.1950 O.co2 212  ASP212     -0.2456
     52  OD2      -22.4020   13.5900    5.5430 O.co2 212  ASP212     -0.2456
     53  N        -24.4220   17.5320    5.1980 N.am  213  ARG213     -0.1977
     54  CA       -24.6500   18.9230    5.6120 C.3   213  ARG213      0.1597
     55  C        -23.9040   19.8410    4.6620 C.2   213  ARG213      0.2287
     56  O        -22.8560   19.5220    4.1260 O.2   213  ARG213     -0.2864
     57  CB       -24.1920   19.0900    7.0520 C.3   213  ARG213      0.0334
     58  CG       -24.9430   18.1480    8.0050 C.3   213  ARG213      0.0492
     59  CD       -24.4870   18.3340    9.4630 C.3   213  ARG213      0.2205
     60  NE       -23.0510   18.2130    9.6550 N.pl3 213  ARG213     -0.0865
     61  CZ       -22.2330   19.2590    9.8710 C.cat 213  ARG213      0.5346
     62  NH1      -22.7300   20.5040    9.9210 N.pl3 213  ARG213      0.1354
     63  NH2      -20.9360   19.0620   10.0400 N.pl3 213  ARG213      0.1354
     64  N        -20.1380   20.2720    4.9410 N.3   216  VAL216     -0.1245
     65  CA       -19.3560   19.1120    4.6190 C.3   216  VAL216      0.1561
     66  C        -19.1470   19.0060    3.0990 C.2   216  VAL216      0.2260
     67  O        -18.0480   18.6930    2.6310 O.2   216  VAL216     -0.2867
     68  CB       -20.0720   17.8220    5.1450 C.3   216  VAL216      0.0252
     69  CG1      -19.3390   16.5790    4.5940 C.3   216  VAL216      0.0019
     70  CG2      -20.0460   17.8220    6.6920 C.3   216  VAL216      0.0019
     71  N        -27.6880   19.4080    2.4770 N.3   231  GLY231     -0.1210
     72  CA       -29.0300   19.5080    3.0310 C.3   231  GLY231      0.1956
     73  C        -29.1250   19.0410    4.4600 C.2   231  GLY231      0.2612
     74  O        -28.0820   18.9990    5.1720 O.2   231  GLY231     -0.2717
     75  N        -30.3370   18.6940    4.8830 N.am  232  ASP232     -0.1959
     76  CA       -30.6080   18.2410    6.2490 C.3   232  ASP232      0.1840
     77  C        -31.5050   17.0080    6.0980 C.2   232  ASP232      0.2622
     78  O        -32.6360   17.1040    5.6210 O.2   232  ASP232     -0.2715
     79  CB       -31.3440   19.3630    7.0220 C.3   232  ASP232      0.1450
     80  CG       -31.7910   18.9180    8.3850 C.2   232  ASP232      0.3671
     81  OD1      -31.4220   17.8370    8.8940 O.co2 232  ASP232     -0.2456
     82  OD2      -32.6060   19.6850    8.9640 O.co2 232  ASP232     -0.2456
     83  N        -31.0090   15.8500    6.5600 N.am  233  MET233     -0.1963
     84  CA       -31.7700   14.6410    6.4320 C.3   233  MET233      0.1736
     85  C        -33.0360   14.6310    7.2570 C.2   233  MET233      0.2616
     86  O        -33.9180   13.8070    7.0040 O.2   233  MET233     -0.2715
     87  CB       -30.8920   13.4370    6.7950 C.3   233  MET233      0.0427
     88  CG       -30.4650   13.3900    8.2490 C.3   233  MET233      0.0599
     89  SD       -29.2710   12.0240    8.4700 S.3   233  MET233     -0.1393
     90  CE       -28.8100   12.2740   10.2200 C.3   233  MET233      0.0692
     91  N        -33.1720   15.5490    8.2180 N.am  234  PHE234     -0.1974
     92  CA       -34.3860   15.5900    9.0250 C.3   234  PHE234      0.1639
     93  C        -35.4810   16.3970    8.3270 C.2   234  PHE234      0.2290
     94  O        -36.6050   16.3640    8.7970 O.2   234  PHE234     -0.2864
     95  CB       -34.0950   16.2310   10.3840 C.3   234  PHE234      0.0560
     96  CG       -33.2560   15.3590   11.2960 C.ar  234  PHE234     -0.0200
     97  CD1      -31.8840   15.4050   11.2760 C.ar  234  PHE234     -0.0042
     98  CD2      -33.8910   14.4350   12.1340 C.ar  234  PHE234     -0.0042
     99  CE1      -31.1190   14.5100   12.1260 C.ar  234  PHE234     -0.0003
    100  CE2      -33.1370   13.5570   12.9450 C.ar  234  PHE234     -0.0003
    101  CZ       -31.7780   13.6030   12.9410 C.ar  234  PHE234     -0.0000
    102  N        -24.7800    5.7990   10.2110 N.3   248  ILE248     -0.1245
    103  CA       -25.6470    6.9600   10.5420 C.3   248  ILE248      0.1561
    104  C        -26.5520    6.6550   11.7420 C.2   248  ILE248      0.2260
    105  O        -26.5080    7.3080   12.7740 O.2   248  ILE248     -0.2867
    106  CB       -26.5880    7.3130    9.3130 C.3   248  ILE248      0.0252
    107  CG1      -25.7260    7.5600    8.0760 C.3   248  ILE248      0.0019
    108  CG2      -27.4610    8.4950    9.6480 C.3   248  ILE248      0.0019
    109  CD1      -24.6720    8.7050    8.2200 C.3   248  ILE248      0.0001
    110  N        -25.8240    6.6870   15.5500 N.3   251  ASN251     -0.1225
    111  CA       -25.4640    7.9700   16.1750 C.3   251  ASN251      0.1785
    112  C        -26.7060    8.6990   16.6990 C.2   251  ASN251      0.2597
    113  O        -26.5810    9.9270   17.0680 O.2   251  ASN251     -0.2718
    114  CB       -24.8320    8.9780   15.1620 C.3   251  ASN251      0.1169
    115  CG       -23.5550    8.5210   14.5320 C.2   251  ASN251      0.2627
    116  OD1      -23.3850    8.7030   13.3100 O.2   251  ASN251     -0.2716
    117  ND2      -22.6550    8.0220   15.2930 N.am  251  ASN251     -0.0877
    118  N        -27.8920    8.0700   16.7330 N.am  252  TRP252     -0.1976
    119  CA       -29.1190    8.7860   17.1110 C.3   252  TRP252      0.1640
    120  C        -30.0380    7.9740   17.9970 C.2   252  TRP252      0.2290
    121  O        -30.0460    6.7220   17.9380 O.2   252  TRP252     -0.2864
    122  CB       -29.9060    9.1770   15.8010 C.3   252  TRP252      0.0576
    123  CG       -29.1190    9.9680   14.8580 C.ar  252  TRP252      0.0006
    124  CD1      -28.3450    9.4900   13.8280 C.ar  252  TRP252      0.0946
    125  CD2      -28.9680   11.3880   14.8540 C.ar  252  TRP252      0.0152
    126  NE1      -27.7150   10.5230   13.1950 N.ar  252  TRP252     -0.2442
    127  CE2      -28.0780   11.7010   13.8040 C.ar  252  TRP252      0.0810
    128  CE3      -29.4940   12.4220   15.6380 C.ar  252  TRP252      0.0012
    129  CZ2      -27.6860   13.0070   13.5050 C.ar  252  TRP252      0.0191
    130  CZ3      -29.1150   13.7380   15.3450 C.ar  252  TRP252      0.0001
    131  CH2      -28.2220   14.0270   14.2880 C.ar  252  TRP252      0.0015
@<TRIPOS>BOND
     1    34    35    1
     2    35    38    1
     3    35    36    1
     4    38    39    1
     5    40    39   ar
     6    40    42   ar
     7    39    41   ar
     8    42    44   ar
     9    36    45   am
    10    36    37    2
    11    33    32    2
    12    45    46    1
    13    71    72    1
    14    41    43   ar
    15    67    66    2
    16    44    43   ar
    17    32    31    1
    18    72    73    1
    19    66    65    1
    20    48    47    2
    21    46    49    1
    22    46    47    1
    23    30    31    1
    24    49    50    1
    25    47    53   am
    26    56    55    2
    27    73    75   am
    28    73    74    2
    29    69    68    1
    30    65    64    1
    31    65    68    1
    32    26    27    1
    33    55    54    1
    34    75    76    1
    35    28    27    1
    36    28    29    2
    37    68    70    1
    38    53    54    1
    39    50    52   ar
    40    50    51   ar
    41    54    57    1
    42    78    77    2
    43    77    76    1
    44    77    83   am
    45    76    79    1
    46    84    83    1
    47    84    87    1
    48    84    85    1
    49    87    88    1
    50    86    85    2
    51    79    80    1
    52    57    58    1
    53    85    91   am
    54    58    59    1
    55   107   109    1
    56   107   106    1
    57    91    92    1
    58    88    89    1
    59    93    94    2
    60    93    92    1
    61    80    81   ar
    62    80    82   ar
    63    89    90    1
    64    92    95    1
    65   106   108    1
    66   106   103    1
    67    59    60    1
    68    60    61    2
    69    61    62    1
    70    61    63    1
    71   102   103    1
    72    95    96    1
    73   103   104    1
    74    18    17    2
    75    17    16    1
    76    97    96   ar
    77    97    99   ar
    78    96    98   ar
    79    24    22   ar
    80    24    25   ar
    81   104   105    2
    82    22    20   ar
    83    99   101   ar
    84    98   100   ar
    85    13    11   ar
    86    13    14   ar
    87    11     8   ar
    88    25    23   ar
    89    16    15    1
    90    16    19    1
    91    20    19    1
    92    20    21   ar
    93   101   100   ar
    94    14    12   ar
    95   126   127   ar
    96   126   124   ar
    97     5     6    1
    98     5     2    1
    99     8     6   ar
   100     8    10   ar
   101     4     3    2
   102   116   115    2
   103     6     7   ar
   104   129   127   ar
   105   129   131   ar
   106    12    10   ar
   107    23    21   ar
   108    10     9   ar
   109   127   125   ar
   110   124   123   ar
   111     3     2    1
   112     7     9   ar
   113     2     1    1
   114   131   130   ar
   115   115   114    1
   116   115   117   am
   117   125   123   ar
   118   125   128   ar
   119   123   122    1
   120   114   111    1
   121   130   128   ar
   122   110   111    1
   123   122   119    1
   124   111   112    1
   125   112   118   am
   126   112   113    2
   127   118   119    1
   128   119   120    1
   129   121   120    2
