@<TRIPOS>MOLECULE
tmp/1fpbA01.pdb
 131 124 0 0 0
SMALL
GASTEIGER

@<TRIPOS>ATOM
      1  N         47.1870  101.3270    0.1280 N.3    12  VAL12      -0.1245
      2  CA        47.9290  102.0950    1.1140 C.3    12  VAL12       0.1561
      3  C         49.0350  102.9080    0.4770 C.2    12  VAL12       0.2260
      4  O         49.2610  104.0390    0.8970 O.2    12  VAL12      -0.2867
      5  CB        48.4770  101.1040    2.1590 C.3    12  VAL12       0.0252
      6  CG1       49.3400  101.7420    3.2240 C.3    12  VAL12       0.0019
      7  CG2       47.2960  100.5680    2.9070 C.3    12  VAL12       0.0019
      8  N         47.9820  106.1080   -1.3960 N.3    15  GLN15      -0.1231
      9  CA        47.5990  107.1400   -0.4440 C.3    15  GLN15       0.1698
     10  C         48.7830  107.8540    0.2430 C.2    15  GLN15       0.2592
     11  O         48.7400  109.0760    0.4540 O.2    15  GLN15      -0.2718
     12  CB        46.6700  106.4940    0.5990 C.3    15  GLN15       0.0381
     13  CG        45.3220  106.0190    0.0550 C.3    15  GLN15       0.0905
     14  CD        44.3480  107.1420   -0.2230 C.2    15  GLN15       0.2608
     15  OE1       44.3510  108.1550    0.4900 O.2    15  GLN15      -0.2717
     16  NE2       43.5130  106.9710   -1.2590 N.am   15  GLN15      -0.0878
     17  N         49.8640  107.1350    0.6110 N.am   16  GLY16      -0.1957
     18  CA        51.0360  107.7380    1.2400 C.3    16  GLY16       0.1869
     19  C         51.8130  108.6210    0.2750 C.2    16  GLY16       0.2309
     20  O         52.7060  109.3680    0.6990 O.2    16  GLY16      -0.2863
     21  N         50.4600  111.8190    0.8400 N.3    19  ALA19      -0.1245
     22  CA        51.0520  112.3410    2.0630 C.3    19  ALA19       0.1562
     23  C         52.4240  112.9150    1.7630 C.2    19  ALA19       0.2260
     24  O         52.9660  113.6270    2.6140 O.2    19  ALA19      -0.2867
     25  CB        51.2520  111.2510    3.1130 C.3    19  ALA19       0.0290
     26  N         55.2290  111.2540    1.4480 N.3    21  GLY21      -0.1210
     27  CA        55.9930  110.6650    2.5350 C.3    21  GLY21       0.1956
     28  C         57.1590  109.7670    2.1700 C.2    21  GLY21       0.2613
     29  O         57.7450  109.8550    1.0820 O.2    21  GLY21      -0.2717
     30  N         57.5030  108.9090    3.1340 N.am   22  THR22      -0.1938
     31  CA        58.6640  108.0290    3.0870 C.3    22  THR22       0.2028
     32  C         58.4420  106.5440    2.8230 C.2    22  THR22       0.2643
     33  O         59.4230  105.8290    2.5990 O.2    22  THR22      -0.2714
     34  CB        59.4490  108.1560    4.4020 C.3    22  THR22       0.1808
     35  OG1       58.5670  107.7140    5.4240 O.3    22  THR22      -0.2208
     36  CG2       59.9120  109.5750    4.7080 C.3    22  THR22       0.0379
     37  N         57.2040  106.0370    2.8740 N.am   23  GLY23      -0.1939
     38  CA        56.9360  104.6170    2.6360 C.3    23  GLY23       0.2014
     39  C         56.8480  103.7070    3.8730 C.2    23  GLY23       0.2639
     40  O         56.4810  102.5460    3.7430 O.2    23  GLY23      -0.2714
     41  N         57.1350  104.1930    5.0860 N.am   24  GLU24      -0.1963
     42  CA        57.1170  103.3640    6.2610 C.3    24  GLU24       0.1733
     43  C         55.7770  102.7580    6.5670 C.2    24  GLU24       0.2616
     44  O         55.7500  101.6150    6.9820 O.2    24  GLU24      -0.2715
     45  CB        57.5470  104.1650    7.4150 C.3    24  GLU24       0.0429
     46  CG        59.0120  104.3310    7.2630 C.3    24  GLU24       0.1163
     47  CD        59.5780  105.2390    8.3210 C.2    24  GLU24       0.3649
     48  OE1       59.6200  104.8360    9.4750 O.co2  24  GLU24      -0.2457
     49  OE2       59.9780  106.3480    7.9900 O.co2  24  GLU24      -0.2457
     50  N         54.6680  103.4630    6.3560 N.am   25  MET25      -0.1963
     51  CA        53.3240  102.9570    6.6120 C.3    25  MET25       0.1736
     52  C         52.9960  101.8030    5.6960 C.2    25  MET25       0.2617
     53  O         52.4930  100.8010    6.1620 O.2    25  MET25      -0.2715
     54  CB        52.3320  104.0780    6.3950 C.3    25  MET25       0.0427
     55  CG        50.8780  103.7660    6.6080 C.3    25  MET25       0.0599
     56  SD        50.6950  103.4130    8.3550 S.3    25  MET25      -0.1393
     57  CE        50.2640  105.0530    8.8040 C.3    25  MET25       0.0692
     58  N         53.2910  101.8910    4.4020 N.am   26  THR26      -0.1951
     59  CA        52.9960  100.8190    3.4430 C.3    26  THR26       0.1897
     60  C         53.7650   99.5590    3.7980 C.2    26  THR26       0.2313
     61  O         53.2690   98.4490    3.6740 O.2    26  THR26      -0.2863
     62  CB        53.3790  101.2310    1.9960 C.3    26  THR26       0.1794
     63  OG1       52.7750  102.4980    1.7850 O.3    26  THR26      -0.2208
     64  CG2       52.8780  100.2890    0.9090 C.3    26  THR26       0.0378
     65  N         59.5790  105.7100   12.3680 N.3    91  LYS91      -0.1231
     66  CA        58.7640  106.6680   13.0950 C.3    91  LYS91       0.1693
     67  C         57.4610  106.2180   13.7360 C.2    91  LYS91       0.2592
     68  O         56.9420  106.9310   14.5890 O.2    91  LYS91      -0.2718
     69  CB        58.4380  107.8550   12.1860 C.3    91  LYS91       0.0285
     70  CG        57.7320  107.6030   10.8630 C.3    91  LYS91       0.0035
     71  CD        57.4860  108.8960   10.0980 C.3    91  LYS91       0.0206
     72  CE        57.0850  108.4730    8.6780 C.3    91  LYS91       0.1093
     73  NZ        57.1170  109.5750    7.7270 N.3    91  LYS91      -0.1314
     74  N         56.8820  105.0680   13.4320 N.am   92  TYR92      -0.1976
     75  CA        55.5810  104.7770   13.9740 C.3    92  TYR92       0.1639
     76  C         55.5920  104.0130   15.2580 C.2    92  TYR92       0.2290
     77  O         56.4800  103.2070   15.4620 O.2    92  TYR92      -0.2864
     78  CB        54.8090  104.0360   12.9090 C.3    92  TYR92       0.0560
     79  CG        54.5500  104.9480   11.7180 C.ar   92  TYR92      -0.0198
     80  CD1       53.7110  106.0470   11.8610 C.ar   92  TYR92      -0.0009
     81  CD2       55.1000  104.6730   10.4890 C.ar   92  TYR92      -0.0009
     82  CE1       53.3750  106.8500   10.7810 C.ar   92  TYR92       0.0417
     83  CE2       54.7740  105.4690    9.3990 C.ar   92  TYR92       0.0417
     84  CZ        53.9070  106.5350    9.5590 C.ar   92  TYR92       0.1957
     85  OH        53.5370  107.2780    8.4730 O.3    92  TYR92      -0.2866
     86  N         52.3490  108.1100   15.6730 N.3   119  ARG119     -0.1245
     87  CA        53.6070  108.6310   15.1620 C.3   119  ARG119      0.1563
     88  C         54.3690  109.1740   16.3640 C.2   119  ARG119      0.2260
     89  O         53.7600  109.8400   17.2050 O.2   119  ARG119     -0.2867
     90  CB        53.2950  109.7330   14.1730 C.3   119  ARG119      0.0307
     91  CG        54.4950  110.4460   13.5810 C.3   119  ARG119      0.0489
     92  CD        54.0760  111.5730   12.6250 C.3   119  ARG119      0.2205
     93  NE        53.9270  111.1360   11.2420 N.pl3 119  ARG119     -0.0865
     94  CZ        52.8290  111.3970   10.5110 C.cat 119  ARG119      0.5346
     95  NH1       51.7660  112.0170   11.0460 N.pl3 119  ARG119      0.1354
     96  NH2       52.7840  111.0090    9.2260 N.pl3 119  ARG119      0.1354
     97  N         47.2470  107.8450   13.6770 N.3   139  VAL139     -0.1231
     98  CA        47.3190  108.1190   12.2300 C.3   139  VAL139      0.1692
     99  C         46.5170  107.0920   11.4140 C.2   139  VAL139      0.2591
    100  O         45.9770  107.3610   10.3320 O.2   139  VAL139     -0.2718
    101  CB        48.8140  108.1520   11.6770 C.3   139  VAL139      0.0266
    102  CG1       49.5380  109.3570   12.2150 C.3   139  VAL139      0.0020
    103  CG2       49.6310  106.9940   12.1570 C.3   139  VAL139      0.0020
    104  N         46.4080  105.9070   12.0120 N.am  140  ALA140     -0.1980
    105  CA        45.7110  104.7930   11.4210 C.3   140  ALA140      0.1597
    106  C         45.3930  103.7790   12.5160 C.2   140  ALA140      0.2287
    107  O         46.0790  103.7400   13.5330 O.2   140  ALA140     -0.2864
    108  CB        46.5800  104.1190   10.3790 C.3   140  ALA140      0.0319
    109  N         41.7960  105.3470    8.4940 N.3   156  MET156     -0.1230
    110  CA        42.8460  106.3500    8.3480 C.3   156  MET156      0.1702
    111  C         42.2050  107.7230    8.1880 C.2   156  MET156      0.2592
    112  O         40.9830  107.8140    8.2410 O.2   156  MET156     -0.2718
    113  CB        43.7160  106.0550    7.1180 C.3   156  MET156      0.0401
    114  CG        44.6070  104.8440    7.3090 C.3   156  MET156      0.0596
    115  SD        45.7570  104.6320    5.9380 S.3   156  MET156     -0.1393
    116  CE        44.6200  103.9260    4.7760 C.3   156  MET156      0.0692
    117  N         42.9600  108.8010    7.9450 N.am  157  VAL157     -0.1966
    118  CA        42.3720  110.1310    7.8670 C.3   157  VAL157      0.1727
    119  C         41.3090  110.2980    6.7690 C.2   157  VAL157      0.2616
    120  O         40.3510  111.0630    6.9040 O.2   157  VAL157     -0.2715
    121  CB        43.5380  111.1680    7.7010 C.3   157  VAL157      0.0290
    122  CG1       44.1870  111.0590    6.3360 C.3   157  VAL157      0.0023
    123  CG2       42.9910  112.5780    7.8560 C.3   157  VAL157      0.0023
    124  N         41.4250  109.5360    5.6930 N.am  158  ASN158     -0.1972
    125  CA        40.4500  109.6120    4.6240 C.3   158  ASN158      0.1688
    126  C         39.1920  108.7560    4.7900 C.2   158  ASN158      0.2292
    127  O         38.2410  108.9940    4.0510 O.2   158  ASN158     -0.2864
    128  CB        41.1390  109.2600    3.3170 C.3   158  ASN158      0.1181
    129  CG        42.0060  108.0110    3.4280 C.2   158  ASN158      0.2629
    130  OD1       41.4880  106.8970    3.5470 O.2   158  ASN158     -0.2716
    131  ND2       43.3430  108.1920    3.4250 N.am  158  ASN158     -0.0877
@<TRIPOS>BOND
     1     8     9    1
     2    16    14   am
     3     9    10    1
     4     9    12    1
     5    14    13    1
     6    14    15    2
     7    13    12    1
     8     1     2    1
     9    10    11    2
    10    10    17   am
    11    19    20    2
    12    19    18    1
    13     3     4    2
    14     3     2    1
    15    17    18    1
    16    21    22    1
    17    64    62    1
    18    29    28    2
    19     2     5    1
    20    26    27    1
    21    23    22    1
    22    23    24    2
    23    63    62    1
    24    62    59    1
    25    22    25    1
    26     5     7    1
    27     5     6    1
    28    28    27    1
    29    28    30   am
    30    33    32    2
    31    38    37    1
    32    38    39    1
    33    32    37   am
    34    32    31    1
    35    31    30    1
    36    31    34    1
    37   128   129    1
    38   128   125    1
    39   131   129   am
    40   129   130    2
    41    59    60    1
    42    59    58    1
    43    61    60    2
    44    40    39    2
    45    39    41   am
    46   127   126    2
    47    34    36    1
    48    34    35    1
    49    58    52   am
    50   125   126    1
    51   125   124    1
    52   116   115    1
    53    41    42    1
    54   124   119   am
    55    52    53    2
    56    52    51    1
    57   115   114    1
    58    42    43    1
    59    42    45    1
    60   122   121    1
    61    50    43   am
    62    50    51    1
    63    54    55    1
    64    54    51    1
    65    43    44    2
    66    55    56    1
    67   119   120    2
    68   119   118    1
    69   113   114    1
    70   113   110    1
    71    46    45    1
    72    46    47    1
    73   121   123    1
    74   121   118    1
    75    73    72    1
    76   118   117    1
    77   117   111   am
    78    49    47   ar
    79   111   112    2
    80   111   110    1
    81    47    48   ar
    82   110   109    1
    83    56    57    1
    84    85    84    1
    85    72    71    1
    86    96    94    1
    87    83    84   ar
    88    83    81   ar
    89    84    82   ar
    90    71    70    1
    91   100    99    2
    92   108   105    1
    93    81    79   ar
    94    94    95    1
    95    94    93    2
    96    82    80   ar
    97    70    69    1
    98    93    92    1
    99    99   104   am
   100    99    98    1
   101   105   104    1
   102   105   106    1
   103   101   103    1
   104   101   102    1
   105   101    98    1
   106    79    80   ar
   107    79    78    1
   108    69    66    1
   109    98    97    1
   110    65    66    1
   111   106   107    2
   112    92    91    1
   113    78    75    1
   114    66    67    1
   115    74    67   am
   116    74    75    1
   117    91    90    1
   118    67    68    2
   119    75    76    1
   120    90    87    1
   121    87    86    1
   122    87    88    1
   123    76    77    2
   124    88    89    2
