@<TRIPOS>MOLECULE
tmp/1fpcB01.pdb
 202 200 0 0 0
SMALL
GASTEIGER

@<TRIPOS>ATOM
      1  N         22.3320   -6.9700   18.8500 N.3    43  HIS43      -0.1241
      2  CA        22.0800   -8.3200   18.3500 C.3    43  HIS43       0.1621
      3  C         21.3910   -8.4130   16.9740 C.2    43  HIS43       0.2264
      4  O         21.3670   -9.5300   16.4040 O.2    43  HIS43      -0.2867
      5  CB        21.4440   -9.2610   19.3620 C.3    43  HIS43       0.0745
      6  CG        19.9540   -9.1250   19.4020 C.ar   43  HIS43       0.0817
      7  ND1       19.3160   -8.4620   20.4420 N.ar   43  HIS43      -0.2268
      8  CD2       19.0340   -9.4840   18.4930 C.ar   43  HIS43       0.1154
      9  CE1       17.9910   -8.5780   20.1860 C.ar   43  HIS43       0.1986
     10  NE2       17.7850   -9.2090   19.0260 N.ar   43  HIS43      -0.2212
     11  N         25.9040  -11.3270   15.7860 N.3    47  TYR47      -0.1241
     12  CA        25.7030  -12.4840   16.7110 C.3    47  TYR47       0.1605
     13  C         26.5360  -13.6450   16.1500 C.2    47  TYR47       0.2264
     14  O         26.0260  -14.4860   15.3400 O.2    47  TYR47      -0.2867
     15  CB        24.1910  -12.8180   16.6050 C.3    47  TYR47       0.0534
     16  CG        23.8740  -13.7760   17.7240 C.ar   47  TYR47      -0.0201
     17  CD1       24.3440  -13.3400   18.9850 C.ar   47  TYR47      -0.0009
     18  CD2       23.3030  -15.0270   17.5910 C.ar   47  TYR47      -0.0009
     19  CE1       24.1420  -14.0850   20.1540 C.ar   47  TYR47       0.0417
     20  CE2       23.1450  -15.7990   18.7580 C.ar   47  TYR47       0.0417
     21  CZ        23.5450  -15.3400   20.0070 C.ar   47  TYR47       0.1957
     22  OH        23.3760  -16.0820   21.1290 O.3    47  TYR47      -0.2866
     23  N         25.6160  -17.4220   15.7160 N.3    50  TRP50      -0.1298
     24  CA        24.7520  -17.8520   14.5970 C.3    50  TRP50       0.1291
     25  C         25.3470  -17.2960   13.3020 C.3    50  TRP50       0.2013
     26  O         24.4320  -17.0200   12.5120 O.3    50  TRP50      -0.2188
     27  CB        23.3240  -17.3580   14.6650 C.3    50  TRP50       0.0497
     28  CG        22.5690  -18.0070   15.7690 C.ar   50  TRP50      -0.0001
     29  CD1       23.0880  -18.8450   16.7340 C.ar   50  TRP50       0.0946
     30  CD2       21.2070  -17.7140   16.1670 C.ar   50  TRP50       0.0152
     31  NE1       22.0670  -19.1860   17.6360 N.ar   50  TRP50      -0.2442
     32  CE2       20.9330  -18.4850   17.3170 C.ar   50  TRP50       0.0810
     33  CE3       20.2410  -16.8810   15.6320 C.ar   50  TRP50       0.0012
     34  CZ2       19.7200  -18.4630   17.9800 C.ar   50  TRP50       0.0191
     35  CZ3       19.0080  -16.8530   16.2430 C.ar   50  TRP50       0.0001
     36  CH2       18.7560  -17.5970   17.4230 C.ar   50  TRP50       0.0015
     37  N         25.9370  -14.3320   12.2700 N.3    52  LYS52      -0.1245
     38  CA        25.3160  -13.0470   11.9060 C.3    52  LYS52       0.1561
     39  C         26.3100  -11.8920   12.0190 C.2    52  LYS52       0.2260
     40  O         26.9520  -11.6100   13.0520 O.2    52  LYS52      -0.2867
     41  CB        24.1860  -12.7980   12.8860 C.3    52  LYS52       0.0271
     42  CG        23.3320  -11.5610   12.6630 C.3    52  LYS52       0.0035
     43  CD        21.9050  -11.9620   13.1010 C.3    52  LYS52       0.0206
     44  CE        20.9550  -10.8630   13.4070 C.3    52  LYS52       0.1093
     45  NZ        19.7230  -11.3910   14.0600 N.3    52  LYS52      -0.1314
     46  N         28.2520  -10.4450   23.5250 N.3    92  TRP92      -0.1241
     47  CA        27.5430  -11.5350   22.7940 C.3    92  TRP92       0.1605
     48  C         28.0100  -12.8830   23.3520 C.2    92  TRP92       0.2264
     49  O         27.2220  -13.8570   23.3520 O.2    92  TRP92      -0.2867
     50  CB        27.6910  -11.3940   21.2730 C.3    92  TRP92       0.0550
     51  CG        29.1150  -11.3770   20.8340 C.ar   92  TRP92       0.0003
     52  CD1       29.9130  -10.2950   20.5160 C.ar   92  TRP92       0.0946
     53  CD2       29.9630  -12.5400   20.7270 C.ar   92  TRP92       0.0152
     54  NE1       31.1710  -10.6990   20.1910 N.ar   92  TRP92      -0.2442
     55  CE2       31.2420  -12.0720   20.2780 C.ar   92  TRP92       0.0810
     56  CE3       29.7360  -13.9160   20.8510 C.ar   92  TRP92       0.0012
     57  CZ2       32.2990  -12.9620   20.0220 C.ar   92  TRP92       0.0191
     58  CZ3       30.8000  -14.8010   20.5610 C.ar   92  TRP92       0.0001
     59  CH2       32.0590  -14.3360   20.1640 C.ar   92  TRP92       0.0015
     60  N         28.1470  -13.8920   26.4330 N.3    94  GLU94      -0.1231
     61  CA        27.3490  -14.5210   27.5170 C.3    94  GLU94       0.1699
     62  C         25.9180  -14.0580   27.6960 C.2    94  GLU94       0.2592
     63  O         25.0110  -14.9300   27.7140 O.2    94  GLU94      -0.2718
     64  CB        28.1630  -14.3420   28.7710 C.3    94  GLU94       0.0402
     65  CG        27.6080  -14.5090   30.1660 C.3    94  GLU94       0.1161
     66  CD        28.2860  -13.6230   31.2050 C.2    94  GLU94       0.3649
     67  OE1       29.2250  -12.8570   30.9210 O.co2  94  GLU94      -0.2457
     68  OE2       27.6900  -13.7080   32.3030 O.co2  94  GLU94      -0.2457
     69  N         25.6310  -12.7550   27.8110 N.am   95  ASN95      -0.1960
     70  CA        24.2690  -12.3450   28.1870 C.3    95  ASN95       0.1819
     71  C         23.6750  -11.1930   27.4310 C.2    95  ASN95       0.2621
     72  O         22.5790  -10.7020   27.8490 O.2    95  ASN95      -0.2715
     73  CB        24.2560  -12.1130   29.7170 C.3    95  ASN95       0.1195
     74  CG        25.2850  -11.0870   30.2020 C.2    95  ASN95       0.2630
     75  OD1       26.3000  -10.7930   29.4700 O.2    95  ASN95      -0.2716
     76  ND2       25.1500  -10.7330   31.4950 N.am   95  ASN95      -0.0877
     77  N         24.3900  -10.7590   26.3820 N.am   96  LEU96      -0.1977
     78  CA        23.8970   -9.6330   25.5610 C.3    96  LEU96       0.1596
     79  C         23.9200   -8.3590   26.4150 C.2    96  LEU96       0.2287
     80  O         23.0030   -7.5170   26.3640 O.2    96  LEU96      -0.2864
     81  CB        22.4940  -10.0600   25.0780 C.3    96  LEU96       0.0297
     82  CG        22.2030  -10.3750   23.6490 C.3    96  LEU96       0.0022
     83  CD1       23.2290  -11.2800   22.9720 C.3    96  LEU96       0.0001
     84  CD2       20.8170  -11.0010   23.5360 C.3    96  LEU96       0.0001
     85  N         20.2480  -16.8230   33.4270 N.3   171  ILE171     -0.1245
     86  CA        21.2230  -15.8430   32.8570 C.3   171  ILE171      0.1561
     87  C         21.5840  -14.7700   33.9050 C.2   171  ILE171      0.2260
     88  O         20.8150  -14.3590   34.7650 O.2   171  ILE171     -0.2867
     89  CB        20.7550  -15.1830   31.4920 C.3   171  ILE171      0.0252
     90  CG1       20.6670  -16.2630   30.4030 C.3   171  ILE171      0.0019
     91  CG2       21.7130  -14.0580   31.0030 C.3   171  ILE171      0.0019
     92  CD1       19.3110  -16.9670   30.3160 C.3   171  ILE171      0.0001
     93  N          3.8910  -10.0320   25.2360 N.3   191  ASP191     -0.1225
     94  CA         5.3630   -9.9270   25.1750 C.3   191  ASP191      0.1805
     95  C          5.8200   -9.5380   23.7670 C.2   191  ASP191      0.2598
     96  O          5.0360   -9.6180   22.8160 O.2   191  ASP191     -0.2718
     97  CB         5.9570  -11.2540   25.5490 C.3   191  ASP191      0.1424
     98  CG         7.3920  -11.4530   25.8840 C.2   191  ASP191      0.3668
     99  OD1        8.1410  -10.5110   26.1980 O.co2 191  ASP191     -0.2456
    100  OD2        7.8140  -12.6690   25.8980 O.co2 191  ASP191     -0.2456
    101  N          7.1170   -9.2770   23.7450 N.am  192  ALA192     -0.1966
    102  CA         7.7950   -9.0610   22.4440 C.3   192  ALA192      0.1728
    103  C          7.9330  -10.5370   21.9290 C.2   192  ALA192      0.2616
    104  O          7.6370  -11.4430   22.7310 O.2   192  ALA192     -0.2715
    105  CB         9.1120   -8.3320   22.5270 C.3   192  ALA192      0.0334
    106  N          8.3850  -10.7350   20.7310 N.am  193  CYS193     -0.1954
    107  CA         8.5400  -12.0570   20.1100 C.3   193  CYS193      0.1843
    108  C          9.5750  -11.9250   18.9980 C.2   193  CYS193      0.2625
    109  O         10.0680  -10.7790   18.7880 O.2   193  CYS193     -0.2714
    110  CB         7.2330  -12.6680   19.6390 C.3   193  CYS193      0.0997
    111  SG         7.2120  -14.5200   19.4290 S.3   193  CYS193     -0.0797
    112  N          9.8530  -13.0540   18.3240 N.am  194  GLU194     -0.1977
    113  CA        10.8790  -12.9200   17.2310 C.3   194  GLU194      0.1602
    114  C         10.5230  -11.7940   16.2620 C.2   194  GLU194      0.2287
    115  O          9.3430  -11.6450   15.9180 O.2   194  GLU194     -0.2864
    116  CB        10.8940  -14.1970   16.4060 C.3   194  GLU194      0.0415
    117  CG        11.8180  -15.3550   16.5150 C.3   194  GLU194      0.1163
    118  CD        12.0630  -16.0510   17.8220 C.2   194  GLU194      0.3649
    119  OE1       11.0620  -16.5860   18.3980 O.co2 194  GLU194     -0.2457
    120  OE2       13.2200  -16.1390   18.2830 O.co2 194  GLU194     -0.2457
    121  N         12.6710   -7.6630   18.1610 N.3   197  SER197     -0.1217
    122  CA        14.0150   -7.2160   18.5080 C.3   197  SER197      0.1889
    123  C         14.4070   -5.8710   17.9120 C.2   197  SER197      0.2288
    124  O         14.4270   -5.5980   16.7140 O.2   197  SER197     -0.2866
    125  CB        15.1190   -8.2080   17.9890 C.3   197  SER197      0.2089
    126  OG        15.0870   -9.3370   18.9200 O.3   197  SER197     -0.2183
    127  N         14.1570   -3.6040   22.7970 N.3   217  VAL217     -0.1231
    128  CA        13.7820   -5.0430   22.9420 C.3   217  VAL217      0.1692
    129  C         15.0560   -5.8810   22.7410 C.2   217  VAL217      0.2593
    130  O         15.5460   -6.0550   21.6000 O.2   217  VAL217     -0.2718
    131  CB        12.7290   -5.4420   21.8810 C.3   217  VAL217      0.0266
    132  CG1       12.2540   -6.9050   22.0140 C.3   217  VAL217      0.0020
    133  CG2       11.4640   -4.5690   21.9150 C.3   217  VAL217      0.0020
    134  N         15.5660   -6.3680   23.8680 N.am  218  SER218     -0.1938
    135  CA        16.8000   -7.1680   23.8850 C.3   218  SER218      0.2055
    136  C         16.5300   -8.6540   23.6270 C.2   218  SER218      0.2643
    137  O         16.4350   -9.0610   22.4720 O.2   218  SER218     -0.2714
    138  CB        17.5620   -7.0510   25.2060 C.3   218  SER218      0.2130
    139  OG        18.8950   -7.5500   25.0360 O.3   218  SER218     -0.2179
    140  N         16.4190   -9.4490   24.7080 N.am  219  TRP219     -0.1959
    141  CA        16.2470  -10.9330   24.5670 C.3   219  TRP219      0.1771
    142  C         15.1050  -11.4670   25.4810 C.2   219  TRP219      0.2620
    143  O         14.4330  -10.7010   26.1670 O.2   219  TRP219     -0.2715
    144  CB        17.6010  -11.6200   24.8740 C.3   219  TRP219      0.0590
    145  CG        18.1740  -11.3640   26.2730 C.ar  219  TRP219      0.0006
    146  CD1       19.0380  -10.3980   26.6390 C.ar  219  TRP219      0.0946
    147  CD2       17.8800  -12.1360   27.4230 C.ar  219  TRP219      0.0152
    148  NE1       19.2970  -10.5610   28.0350 N.ar  219  TRP219     -0.2442
    149  CE2       18.6110  -11.5900   28.4790 C.ar  219  TRP219      0.0810
    150  CE3       17.0620  -13.2440   27.6530 C.ar  219  TRP219      0.0012
    151  CZ2       18.5780  -12.1080   29.7780 C.ar  219  TRP219      0.0191
    152  CZ3       17.0230  -13.7490   28.9640 C.ar  219  TRP219      0.0001
    153  CH2       17.7450  -13.2060   29.9780 C.ar  219  TRP219      0.0015
    154  N         14.8720  -12.8090   25.4810 N.am  220  GLY220     -0.1940
    155  CA        13.7750  -13.4430   26.2930 C.3   220  GLY220      0.2014
    156  C         13.7260  -14.9400   25.9970 C.2   220  GLY220      0.2639
    157  O         14.2040  -15.3830   24.9470 O.2   220  GLY220     -0.2714
    158  N         13.1550  -15.6790   26.9320 N.am  221  GLU221     -0.1963
    159  CA        13.0540  -17.1440   26.8170 C.3   221  GLU221      0.1733
    160  C         11.6410  -17.5530   26.3610 C.2   221  GLU221      0.2617
    161  O         10.7040  -17.7020   27.1610 O.2   221  GLU221     -0.2715
    162  CB        13.3800  -17.7830   28.1580 C.3   221  GLU221      0.0429
    163  CG        14.8350  -17.5670   28.5900 C.3   221  GLU221      0.1163
    164  CD        14.9320  -17.4760   30.0890 C.2   221  GLU221      0.3649
    165  OE1       14.6410  -16.3630   30.6420 O.co2 221  GLU221     -0.2457
    166  OE2       15.2720  -18.5110   30.7710 O.co2 221  GLU221     -0.2457
    167  N         11.6190  -17.5630   25.0430 N.am  222  GLY222     -0.1940
    168  CA        10.2910  -17.7880   24.3920 C.3   222  GLY222      0.2014
    169  C          9.5890  -16.4090   24.2200 C.2   222  GLY222      0.2639
    170  O         10.2510  -15.3370   24.2450 O.2   222  GLY222     -0.2714
    171  N          8.2850  -16.5310   24.0210 N.am  223  CYS223     -0.1967
    172  CA         7.3680  -15.4220   23.7700 C.3   223  CYS223      0.1712
    173  C          6.1640  -15.6510   24.6730 C.2   223  CYS223      0.2296
    174  O          5.4710  -16.6920   24.4700 O.2   223  CYS223     -0.2864
    175  CB         6.9790  -15.3540   22.2800 C.3   223  CYS223      0.0983
    176  SG         8.3900  -15.1280   21.1040 S.3   223  CYS223     -0.0798
    177  N          5.6890  -16.8510   27.8850 N.3   225  ARG225     -0.1245
    178  CA         5.7890  -18.0340   28.7440 C.3   225  ARG225      0.1563
    179  C          5.5170  -17.6530   30.1950 C.2   225  ARG225      0.2260
    180  O          6.2040  -16.7240   30.7210 O.2   225  ARG225     -0.2867
    181  CB         7.2440  -18.5070   28.6400 C.3   225  ARG225      0.0307
    182  CG         7.7630  -18.7280   27.2390 C.3   225  ARG225      0.0489
    183  CD         7.3610  -20.1010   26.8140 C.3   225  ARG225      0.2205
    184  NE         8.3550  -20.5850   25.8150 N.pl3 225  ARG225     -0.0865
    185  CZ         9.5470  -20.8390   26.3620 C.cat 225  ARG225      0.5346
    186  NH1        9.5120  -20.5940   27.6790 N.pl3 225  ARG225      0.1354
    187  NH2       10.6040  -21.2380   25.6640 N.pl3 225  ARG225      0.1354
    188  N         10.2050  -10.5730   29.2900 N.3   230  GLY230     -0.1210
    189  CA        11.0270   -9.9450   28.1980 C.3   230  GLY230      0.1956
    190  C         12.0620   -9.0510   28.9290 C.2   230  GLY230      0.2611
    191  O         11.7950   -8.5420   30.0720 O.2   230  GLY230     -0.2717
    192  N         13.2180   -9.0160   28.2990 N.am  231  PHE231     -0.1976
    193  CA        14.3790   -8.2060   28.7470 C.3   231  PHE231      0.1639
    194  C         14.6970   -7.1380   27.7060 C.2   231  PHE231      0.2290
    195  O         14.6760   -7.3560   26.4740 O.2   231  PHE231     -0.2864
    196  CB        15.6670   -9.0040   29.0570 C.3   231  PHE231      0.0560
    197  CG        15.5170   -9.7720   30.3760 C.ar  231  PHE231     -0.0200
    198  CD1       14.6900  -10.8970   30.4450 C.ar  231  PHE231     -0.0042
    199  CD2       16.2200   -9.3560   31.5140 C.ar  231  PHE231     -0.0042
    200  CE1       14.5210  -11.5620   31.6440 C.ar  231  PHE231     -0.0003
    201  CE2       16.0410  -10.0420   32.7390 C.ar  231  PHE231     -0.0003
    202  CZ        15.1980  -11.1630   32.8280 C.ar  231  PHE231     -0.0000
@<TRIPOS>BOND
     1    38    39    1
     2    38    37    1
     3    38    41    1
     4    39    40    2
     5    26    25    1
     6    42    41    1
     7    42    43    1
     8    43    44    1
     9    25    24    1
    10    44    45    1
    11    24    27    1
    12    24    23    1
    13    27    28    1
    14    14    13    2
    15    33    30   ar
    16    33    35   ar
    17    28    30   ar
    18    28    29   ar
    19    11    12    1
    20   115   114    2
    21    13    12    1
    22    30    32   ar
    23    35    36   ar
    24   114   113    1
    25     4     3    2
    26   116   117    1
    27   116   113    1
    28   117   118    1
    29    15    12    1
    30    15    16    1
    31   124   123    2
    32    29    31   ar
    33     3     2    1
    34   113   112    1
    35    32    31   ar
    36    32    34   ar
    37    36    34   ar
    38    18    16   ar
    39    18    20   ar
    40    16    17   ar
    41   118   120   ar
    42   118   119   ar
    43   123   122    1
    44   125   122    1
    45   125   126    1
    46   121   122    1
    47   112   108   am
    48     2     1    1
    49     2     5    1
    50     8    10   ar
    51     8     6   ar
    52    20    21   ar
    53   109   108    2
    54    17    19   ar
    55   108   107    1
    56    10     9   ar
    57     5     6    1
    58     6     7   ar
    59   111   110    1
    60   111   176    1
    61   110   107    1
    62    21    19   ar
    63    21    22    1
    64    57    59   ar
    65    57    55   ar
    66   107   106    1
    67    59    58   ar
    68     9     7   ar
    69    54    55   ar
    70    54    52   ar
    71    55    53   ar
    72    52    51   ar
    73    58    56   ar
    74    53    51   ar
    75    53    56   ar
    76   106   103   am
    77    51    50    1
    78   176   175    1
    79    50    47    1
    80   130   129    2
    81   131   133    1
    82   131   132    1
    83   131   128    1
    84   103   102    1
    85   103   104    2
    86   175   172    1
    87   102   105    1
    88   102   101    1
    89   137   136    2
    90   129   128    1
    91   129   134   am
    92    47    48    1
    93    47    46    1
    94   127   128    1
    95    96    95    2
    96    83    82    1
    97    48    49    2
    98    84    82    1
    99   136   135    1
   100   136   140   am
   101    82    81    1
   102   101    95   am
   103    95    94    1
   104   172   171    1
   105   172   173    1
   106   134   135    1
   107   135   138    1
   108   171   169   am
   109   169   170    2
   110   169   168    1
   111   168   167    1
   112   174   173    2
   113   141   140    1
   114   141   144    1
   115   141   142    1
   116   144   145    1
   117   157   156    2
   118   139   138    1
   119   167   160   am
   120    81    78    1
   121    94    93    1
   122    94    97    1
   123   154   142   am
   124   154   155    1
   125   142   143    2
   126    97    98    1
   127    78    77    1
   128    78    79    1
   129   187   185    1
   130   184   185    2
   131   184   183    1
   132    98   100   ar
   133    98    99   ar
   134   156   155    1
   135   156   158   am
   136   145   146   ar
   137   145   147   ar
   138   160   159    1
   139   160   161    2
   140   185   186    1
   141    80    79    2
   142    77    71   am
   143    60    61    1
   144   195   194    2
   145   146   148   ar
   146   183   182    1
   147   159   158    1
   148   159   162    1
   149   182   181    1
   150   147   150   ar
   151   147   149   ar
   152    71    72    2
   153    71    70    1
   154    61    62    1
   155    61    64    1
   156   150   152   ar
   157    62    63    2
   158    62    69   am
   159   194   193    1
   160    69    70    1
   161   177   178    1
   162   148   149   ar
   163   162   163    1
   164    70    73    1
   165   189   190    1
   166   189   188    1
   167   192   193    1
   168   192   190   am
   169   149   151   ar
   170   163   164    1
   171   181   178    1
   172   178   179    1
   173   193   196    1
   174    64    65    1
   175   190   191    2
   176   152   153   ar
   177   196   197    1
   178    75    74    2
   179    73    74    1
   180   151   153   ar
   181   164   165   ar
   182   164   166   ar
   183    65    66    1
   184   179   180    2
   185    74    76   am
   186    92    90    1
   187   197   198   ar
   188   197   199   ar
   189    90    89    1
   190   198   200   ar
   191    67    66   ar
   192    91    89    1
   193    66    68   ar
   194    89    86    1
   195   199   201   ar
   196   200   202   ar
   197   201   202   ar
   198    86    85    1
   199    86    87    1
   200    87    88    2
