@<TRIPOS>MOLECULE
tmp/1fpgA00.pdb
 184 175 0 0 0
SMALL
GASTEIGER

@<TRIPOS>ATOM
      1  N         48.1310  101.6140    4.6550 N.3    79  GLU79      -0.1245
      2  CA        48.6070  102.6980    5.4930 C.3    79  GLU79       0.1567
      3  C         49.8470  102.2590    6.2640 C.2    79  GLU79       0.2260
      4  O         50.7680  103.0270    6.4320 O.2    79  GLU79      -0.2867
      5  CB        47.6200  103.0680    6.4430 C.3    79  GLU79       0.0388
      6  CG        48.0220  104.2900    7.2040 C.3    79  GLU79       0.1160
      7  CD        47.1070  104.5540    8.3540 C.2    79  GLU79       0.3649
      8  OE1       45.9250  104.8940    8.1220 O.co2  79  GLU79      -0.2457
      9  OE2       47.5810  104.4030    9.4980 O.co2  79  GLU79      -0.2457
     10  N         43.2440  100.8390    4.6610 N.3   100  ASP100     -0.1239
     11  CA        43.7460  101.2270    5.9780 C.3   100  ASP100      0.1674
     12  C         43.0980  100.0630    6.7740 C.2   100  ASP100      0.2266
     13  O         41.8820  100.0210    6.9650 O.2   100  ASP100     -0.2867
     14  CB        43.1750  102.5200    6.3710 C.3   100  ASP100      0.1410
     15  CG        43.5540  102.9190    7.7610 C.2   100  ASP100      0.3668
     16  OD1       44.3070  102.1900    8.4330 O.co2 100  ASP100     -0.2456
     17  OD2       43.0850  103.9820    8.1900 O.co2 100  ASP100     -0.2456
     18  N         43.1260   99.1550    9.9730 N.3   102  LEU102     -0.1231
     19  CA        42.5360   99.4540   11.2630 C.3   102  LEU102      0.1693
     20  C         42.7330  100.9450   11.4730 C.2   102  LEU102      0.2592
     21  O         43.8300  101.4210   11.7260 O.2   102  LEU102     -0.2718
     22  CB        43.2460   98.6330   12.3870 C.3   102  LEU102      0.0284
     23  CG        42.3430   98.4410   13.6020 C.3   102  LEU102      0.0019
     24  CD1       41.0420   97.7900   13.1470 C.3   102  LEU102      0.0001
     25  CD2       43.0090   97.6120   14.6770 C.3   102  LEU102      0.0001
     26  N         41.6800  101.6940   11.2360 N.am  103  ASP103     -0.1960
     27  CA        41.7340  103.1260   11.3880 C.3   103  ASP103      0.1840
     28  C         41.2430  103.4950   12.7660 C.2   103  ASP103      0.2623
     29  O         40.1890  103.0280   13.2090 O.2   103  ASP103     -0.2715
     30  CB        40.8470  103.8140   10.2830 C.3   103  ASP103      0.1450
     31  CG        40.9190  105.3370   10.3280 C.2   103  ASP103      0.3671
     32  OD1       41.9800  105.9290   10.0130 O.co2 103  ASP103     -0.2456
     33  OD2       39.8920  105.9230   10.6850 O.co2 103  ASP103     -0.2456
     34  N         41.9730  104.3850   13.4220 N.am  104  GLY104     -0.1940
     35  CA        41.5860  104.8140   14.7600 C.3   104  GLY104      0.2014
     36  C         42.3200  104.0000   15.8130 C.2   104  GLY104      0.2640
     37  O         41.8910  103.9200   16.9450 O.2   104  GLY104     -0.2714
     38  N         43.4650  103.4500   15.4360 N.am  105  SER105     -0.1935
     39  CA        44.2580  102.6240   16.3190 C.3   105  SER105      0.2055
     40  C         44.6010  103.2550   17.6480 C.2   105  SER105      0.2644
     41  O         44.6830  102.5550   18.6460 O.2   105  SER105     -0.2714
     42  CB        45.5100  102.1970   15.6150 C.3   105  SER105      0.2130
     43  OG        45.1830  101.5600   14.3870 O.3   105  SER105     -0.2179
     44  N         44.8190  104.5650   17.6720 N.am  106  SER106     -0.1935
     45  CA        45.1310  105.2600   18.9200 C.3   106  SER106      0.2055
     46  C         43.9520  105.1250   19.8900 C.2   106  SER106      0.2643
     47  O         44.1220  105.1840   21.1050 O.2   106  SER106     -0.2714
     48  CB        45.3790  106.7160   18.6400 C.3   106  SER106      0.2130
     49  OG        44.2420  107.2730   17.9980 O.3   106  SER106     -0.2179
     50  N         42.7580  104.9650   19.3330 N.am  107  ASN107     -0.1971
     51  CA        41.5460  104.8060   20.1180 C.3   107  ASN107      0.1688
     52  C         41.3380  103.4220   20.7290 C.2   107  ASN107      0.2292
     53  O         40.4690  103.2660   21.6010 O.2   107  ASN107     -0.2864
     54  CB        40.3300  105.1530   19.2800 C.3   107  ASN107      0.1181
     55  CG        40.2220  106.6360   19.0070 C.2   107  ASN107      0.2629
     56  OD1       39.4630  107.3520   19.6660 O.2   107  ASN107     -0.2716
     57  ND2       41.0080  107.1190   18.0470 N.am  107  ASN107     -0.0877
     58  N         37.4030  118.7700   14.8680 N.3   194  ASN194     -0.1240
     59  CA        38.1660  118.8560   16.0960 C.3   194  ASN194      0.1653
     60  C         38.3970  120.3490   16.3830 C.2   194  ASN194      0.2266
     61  O         39.3810  120.9260   15.9170 O.2   194  ASN194     -0.2867
     62  CB        39.5370  118.1280   15.9250 C.3   194  ASN194      0.1155
     63  CG        40.3510  118.0980   17.2230 C.2   194  ASN194      0.2627
     64  OD1       40.0360  118.7920   18.1910 O.2   194  ASN194     -0.2716
     65  ND2       41.4230  117.3120   17.2330 N.am  194  ASN194     -0.0877
     66  N         41.5990  122.7180   17.3350 N.3   197  TYR197     -0.1241
     67  CA        42.4840  123.3840   16.3910 C.3   197  TYR197      0.1605
     68  C         42.0000  124.7790   15.9790 C.2   197  TYR197      0.2264
     69  O         42.5150  125.3290   15.0090 O.2   197  TYR197     -0.2867
     70  CB        42.5870  122.5760   15.1650 C.3   197  TYR197      0.0534
     71  CG        43.1560  121.2170   15.3710 C.ar  197  TYR197     -0.0201
     72  CD1       44.3880  121.0650   15.9450 C.ar  197  TYR197     -0.0009
     73  CD2       42.4640  120.0760   14.9710 C.ar  197  TYR197     -0.0009
     74  CE1       44.9340  119.8190   16.1270 C.ar  197  TYR197      0.0417
     75  CE2       43.0080  118.8120   15.1460 C.ar  197  TYR197      0.0417
     76  CZ        44.2510  118.7040   15.7310 C.ar  197  TYR197      0.1957
     77  OH        44.8390  117.4840   15.9300 O.3   197  TYR197     -0.2866
     78  N         32.2340  114.4740   17.6470 N.3   226  TYR226     -0.1241
     79  CA        33.5400  114.2210   17.0700 C.3   226  TYR226      0.1605
     80  C         34.1560  113.0430   17.8180 C.2   226  TYR226      0.2264
     81  O         34.9290  113.2110   18.7500 O.2   226  TYR226     -0.2867
     82  CB        34.4450  115.4200   17.1520 C.3   226  TYR226      0.0534
     83  CG        35.7080  115.2490   16.3390 C.ar  226  TYR226     -0.0201
     84  CD1       35.6790  115.3070   14.9380 C.ar  226  TYR226     -0.0009
     85  CD2       36.9240  115.0740   16.9510 C.ar  226  TYR226     -0.0009
     86  CE1       36.8540  115.2070   14.1640 C.ar  226  TYR226      0.0417
     87  CE2       38.1000  114.9830   16.2000 C.ar  226  TYR226      0.0417
     88  CZ        38.0540  115.0550   14.8000 C.ar  226  TYR226      0.1957
     89  OH        39.2300  114.9900   14.0590 O.3   226  TYR226     -0.2866
     90  N         36.3950  111.0520   16.9190 N.3   228  GLY228     -0.1210
     91  CA        37.8520  110.9390   16.8350 C.3   228  GLY228      0.1956
     92  C         38.3270  109.7770   15.9510 C.2   228  GLY228      0.2613
     93  O         39.5340  109.5710   15.8200 O.2   228  GLY228     -0.2717
     94  N         37.4060  109.0140   15.3560 N.am  229  SER229     -0.1938
     95  CA        37.7470  107.9170   14.4280 C.3   229  SER229      0.2055
     96  C         36.9740  108.2490   13.1770 C.2   229  SER229      0.2642
     97  O         35.7490  108.3220   13.2280 O.2   229  SER229     -0.2714
     98  CB        37.2220  106.5950   14.9140 C.3   229  SER229      0.2130
     99  OG        38.0410  106.0910   15.9210 O.3   229  SER229     -0.2179
    100  N         37.6560  108.4160   12.0520 N.am  230  MET230     -0.1976
    101  CA        36.9760  108.7720   10.8010 C.3   230  MET230      0.1605
    102  C         35.7840  107.9100   10.4180 C.2   230  MET230      0.2287
    103  O         34.6870  108.4090   10.1670 O.2   230  MET230     -0.2864
    104  CB        37.9780  108.8150    9.6480 C.3   230  MET230      0.0413
    105  CG        37.3300  108.9790    8.2770 C.3   230  MET230      0.0598
    106  SD        38.5900  109.0680    7.0490 S.3   230  MET230     -0.1393
    107  CE        37.8910  110.3550    6.0250 C.3   230  MET230      0.0692
    108  N         32.9310  108.6880   12.6000 N.3   233  ASP233     -0.1239
    109  CA        32.3550  110.0150   12.3200 C.3   233  ASP233      0.1674
    110  C         31.6630  110.0100   10.9490 C.2   233  ASP233      0.2266
    111  O         30.4970  110.4250   10.8070 O.2   233  ASP233     -0.2867
    112  CB        33.4600  111.1080   12.3760 C.3   233  ASP233      0.1410
    113  CG        33.9690  111.3500   13.7890 C.2   233  ASP233      0.3668
    114  OD1       33.1400  111.5160   14.6850 O.co2 233  ASP233     -0.2456
    115  OD2       35.1900  111.4000   14.0140 O.co2 233  ASP233     -0.2456
    116  N         31.1890  116.5050    8.0880 N.3   244  PHE244     -0.1241
    117  CA        32.3830  116.0770    8.8030 C.3   244  PHE244      0.1605
    118  C         33.4930  116.8760    8.1750 C.2   244  PHE244      0.2264
    119  O         33.5080  117.0400    6.9510 O.2   244  PHE244     -0.2867
    120  CB        32.6560  114.5500    8.5860 C.3   244  PHE244      0.0534
    121  CG        34.0280  114.1130    9.0150 C.ar  244  PHE244     -0.0203
    122  CD1       34.3360  113.9430   10.3600 C.ar  244  PHE244     -0.0042
    123  CD2       35.0210  113.8820    8.0730 C.ar  244  PHE244     -0.0042
    124  CE1       35.6500  113.5350   10.7620 C.ar  244  PHE244     -0.0003
    125  CE2       36.2990  113.4850    8.4440 C.ar  244  PHE244     -0.0003
    126  CZ        36.6220  113.3100    9.7910 C.ar  244  PHE244     -0.0000
    127  N         37.8860  117.8660    8.1980 N.3   246  TYR246     -0.1241
    128  CA        39.2480  117.7520    8.6340 C.3   246  TYR246      0.1605
    129  C         40.0810  118.5680    7.6310 C.2   246  TYR246      0.2264
    130  O         40.7910  118.0130    6.7670 O.2   246  TYR246     -0.2867
    131  CB        39.6900  116.3510    8.7060 C.3   246  TYR246      0.0534
    132  CG        40.8460  116.2230    9.6490 C.ar  246  TYR246     -0.0201
    133  CD1       41.9640  117.0310    9.5030 C.ar  246  TYR246     -0.0009
    134  CD2       40.7680  115.4020   10.7620 C.ar  246  TYR246     -0.0009
    135  CE1       42.9630  117.0380   10.4430 C.ar  246  TYR246      0.0417
    136  CE2       41.7630  115.4040   11.7110 C.ar  246  TYR246      0.0417
    137  CZ        42.8510  116.2230   11.5490 C.ar  246  TYR246      0.1957
    138  OH        43.8270  116.2550   12.5110 O.3   246  TYR246     -0.2866
    139  N         49.2080  121.1160   11.6200 N.3   251  LYS251     -0.1245
    140  CA        49.3890  119.6690   11.4260 C.3   251  LYS251      0.1561
    141  C         49.2670  119.5770    9.9120 C.2   251  LYS251      0.2260
    142  O         48.1680  119.3730    9.3800 O.2   251  LYS251     -0.2867
    143  CB        48.1420  118.8400   12.0970 C.3   251  LYS251      0.0271
    144  CG        48.1660  117.2790   12.0270 C.3   251  LYS251      0.0035
    145  CD        48.5560  116.6950   10.6640 C.3   251  LYS251      0.0206
    146  CE        49.9870  116.1390   10.7290 C.3   251  LYS251      0.1093
    147  NZ        50.7720  116.2930    9.4680 N.3   251  LYS251     -0.1314
    148  N         45.4020  115.9430    7.3340 N.3   256  LYS256     -0.1231
    149  CA        45.9340  114.8050    8.0910 C.3   256  LYS256      0.1693
    150  C         45.5700  113.5090    7.4040 C.2   256  LYS256      0.2592
    151  O         46.3910  112.6170    7.2510 O.2   256  LYS256     -0.2718
    152  CB        45.3690  114.7790    9.5270 C.3   256  LYS256      0.0285
    153  CG        45.8960  113.6270   10.3550 C.3   256  LYS256      0.0035
    154  CD        45.1940  113.4800   11.6890 C.3   256  LYS256      0.0206
    155  CE        45.7670  112.2980   12.4140 C.3   256  LYS256      0.1093
    156  NZ        45.1500  112.0890   13.7360 N.3   256  LYS256     -0.1314
    157  N         44.3160  113.4240    6.9950 N.am  257  LEU257     -0.1966
    158  CA        43.8090  112.2450    6.3250 C.3   257  LEU257      0.1728
    159  C         44.5190  111.9170    4.9980 C.2   257  LEU257      0.2616
    160  O         44.8610  112.8060    4.1990 O.2   257  LEU257     -0.2715
    161  CB        42.2780  112.3560    6.1730 C.3   257  LEU257      0.0311
    162  CG        41.5990  112.5730    7.5630 C.3   257  LEU257      0.0022
    163  CD1       40.1090  112.4340    7.4440 C.3   257  LEU257      0.0001
    164  CD2       42.1340  111.5810    8.5840 C.3   257  LEU257      0.0001
    165  N         44.8380  110.6330    4.8420 N.am  258  ARG258     -0.1977
    166  CA        45.5220  110.1400    3.6730 C.3   258  ARG258      0.1597
    167  C         44.5450  109.9680    2.5210 C.2   258  ARG258      0.2287
    168  O         43.4150  109.5100    2.7140 O.2   258  ARG258     -0.2864
    169  CB        46.2830  108.9050    4.0180 C.3   258  ARG258      0.0334
    170  CG        47.6930  109.2600    4.5030 C.3   258  ARG258      0.0492
    171  CD        48.0630  108.6140    5.8040 C.3   258  ARG258      0.2205
    172  NE        47.0840  108.8700    6.8600 N.pl3 258  ARG258     -0.0865
    173  CZ        47.1770  108.4250    8.1190 C.cat 258  ARG258      0.5346
    174  NH1       48.2620  107.7580    8.5320 N.pl3 258  ARG258      0.1354
    175  NH2       46.2000  108.7070    8.9870 N.pl3 258  ARG258      0.1354
    176  N         41.9010  106.6670    2.8050 N.3   262  GLU262     -0.1245
    177  CA        40.9950  107.2350    3.8080 C.3   262  GLU262      0.1567
    178  C         39.9990  108.1680    3.1650 C.2   262  GLU262      0.2260
    179  O         38.7930  107.9570    3.2730 O.2   262  GLU262     -0.2867
    180  CB        41.7550  108.0010    4.9390 C.3   262  GLU262      0.0388
    181  CG        42.8860  107.2470    5.5740 C.3   262  GLU262      0.1160
    182  CD        43.2320  107.7770    6.9420 C.2   262  GLU262      0.3649
    183  OE1       42.5860  107.3490    7.9200 O.co2 262  GLU262     -0.2457
    184  OE2       44.1500  108.6110    7.0620 O.co2 262  GLU262     -0.2457
@<TRIPOS>BOND
     1   167   168    2
     2   167   166    1
     3   176   177    1
     4   178   179    2
     5   178   177    1
     6   166   169    1
     7   166   165    1
     8   177   180    1
     9   169   170    1
    10   160   159    2
    11   170   171    1
    12     1     2    1
    13    10    11    1
    14   165   159   am
    15   180   181    1
    16   159   158    1
    17     2     3    1
    18     2     5    1
    19   181   182    1
    20   171   172    1
    21    11    14    1
    22    11    12    1
    23   107   106    1
    24   161   158    1
    25   161   162    1
    26     3     4    2
    27   158   157    1
    28    14    15    1
    29     5     6    1
    30   130   129    2
    31    12    13    2
    32   172   173    2
    33   182   184   ar
    34   182   183   ar
    35   119   118    2
    36   157   150   am
    37   106   105    1
    38     6     7    1
    39   151   150    2
    40   148   149    1
    41   150   149    1
    42   163   162    1
    43   162   164    1
    44   129   128    1
    45    15    17   ar
    46    15    16   ar
    47   123   125   ar
    48   123   121   ar
    49   116   117    1
    50   149   152    1
    51   173   174    1
    52   173   175    1
    53     8     7   ar
    54   118   117    1
    55   127   128    1
    56   105   104    1
    57     7     9   ar
    58   125   126   ar
    59   120   117    1
    60   120   121    1
    61   128   131    1
    62   131   132    1
    63   121   122   ar
    64   142   141    2
    65   147   146    1
    66   133   132   ar
    67   133   135   ar
    68   152   153    1
    69   104   101    1
    70   132   134   ar
    71   126   124   ar
    72   141   140    1
    73    18    19    1
    74    32    31   ar
    75   103   102    2
    76    30    31    1
    77    30    27    1
    78    31    33   ar
    79   153   154    1
    80   122   124   ar
    81   102   101    1
    82   135   137   ar
    83   145   146    1
    84   145   144    1
    85   134   136   ar
    86   101   100    1
    87   111   110    2
    88   110   109    1
    89    26    27    1
    90    26    20   am
    91    19    20    1
    92    19    22    1
    93    27    28    1
    94   140   139    1
    95   140   143    1
    96    20    21    2
    97   137   136   ar
    98   137   138    1
    99   154   155    1
   100   144   143    1
   101   100    96   am
   102   109   112    1
   103   109   108    1
   104   112   113    1
   105    22    23    1
   106   155   156    1
   107    28    29    2
   108    28    34   am
   109    24    23    1
   110    96    97    2
   111    96    95    1
   112    34    35    1
   113    23    25    1
   114   113   115   ar
   115   113   114   ar
   116    89    88    1
   117    86    88   ar
   118    86    84   ar
   119    43    42    1
   120    95    98    1
   121    95    94    1
   122    35    36    1
   123    88    87   ar
   124    58    59    1
   125    98    99    1
   126    84    83   ar
   127    73    75   ar
   128    73    71   ar
   129    69    68    2
   130    75    76   ar
   131    70    71    1
   132    70    67    1
   133    94    92   am
   134    71    72   ar
   135    38    36   am
   136    38    39    1
   137    42    39    1
   138    76    77    1
   139    76    74   ar
   140    36    37    2
   141    93    92    2
   142    61    60    2
   143    62    59    1
   144    62    63    1
   145    72    74   ar
   146    92    91    1
   147    68    67    1
   148    59    60    1
   149    87    85   ar
   150    39    40    1
   151    83    85   ar
   152    83    82    1
   153    67    66    1
   154    91    90    1
   155    79    82    1
   156    79    78    1
   157    79    80    1
   158    63    65   am
   159    63    64    2
   160    40    44   am
   161    40    41    2
   162    44    45    1
   163    80    81    2
   164    49    48    1
   165    57    55   am
   166    48    45    1
   167    45    46    1
   168    55    54    1
   169    55    56    2
   170    54    51    1
   171    50    46   am
   172    50    51    1
   173    46    47    2
   174    51    52    1
   175    52    53    2
