@<TRIPOS>MOLECULE
tmp/1fpnA00.pdb
 210 201 0 0 0
SMALL
GASTEIGER

@<TRIPOS>ATOM
      1  N          9.7190  -48.3090  126.6060 N.3    63  ILE63      -0.1245
      2  CA         9.3180  -47.1470  127.3890 C.3    63  ILE63       0.1561
      3  C          8.5020  -47.4980  128.6350 C.2    63  ILE63       0.2260
      4  O          8.2830  -46.6380  129.4960 O.2    63  ILE63      -0.2867
      5  CB         8.5180  -46.1580  126.5540 C.3    63  ILE63       0.0252
      6  CG1        7.1980  -46.7810  126.1270 C.3    63  ILE63       0.0019
      7  CG2        9.3240  -45.7330  125.3510 C.3    63  ILE63       0.0019
      8  CD1        6.3000  -45.7790  125.4550 C.3    63  ILE63       0.0001
      9  N         -1.6420  -46.9370  133.3550 N.3    83  TRP83      -0.1241
     10  CA        -0.3500  -46.2650  133.2820 C.3    83  TRP83       0.1605
     11  C         -0.4870  -44.9740  132.5190 C.2    83  TRP83       0.2264
     12  O         -0.9170  -44.9720  131.3660 O.2    83  TRP83      -0.2867
     13  CB         0.6730  -47.1320  132.5640 C.3    83  TRP83       0.0550
     14  CG         1.9900  -46.4330  132.3590 C.ar   83  TRP83       0.0003
     15  CD1        2.8260  -45.9450  133.3320 C.ar   83  TRP83       0.0946
     16  CD2        2.6360  -46.1670  131.1110 C.ar   83  TRP83       0.0152
     17  NE1        3.9500  -45.3970  132.7590 N.ar   83  TRP83      -0.2442
     18  CE2        3.8590  -45.5190  131.3990 C.ar   83  TRP83       0.0810
     19  CE3        2.3010  -46.4150  129.7770 C.ar   83  TRP83       0.0012
     20  CZ2        4.7500  -45.1150  130.4020 C.ar   83  TRP83       0.0191
     21  CZ3        3.1920  -46.0140  128.7740 C.ar   83  TRP83       0.0001
     22  CH2        4.4040  -45.3710  129.0960 C.ar   83  TRP83       0.0015
     23  N          0.6830  -42.5390  130.3170 N.3    85  ILE85      -0.1231
     24  CA         1.6800  -42.5570  129.2640 C.3    85  ILE85       0.1692
     25  C          2.6870  -41.4170  129.2650 C.2    85  ILE85       0.2592
     26  O          2.3160  -40.2630  129.4620 O.2    85  ILE85      -0.2718
     27  CB         0.9820  -42.5350  127.9350 C.3    85  ILE85       0.0266
     28  CG1        0.2110  -43.8250  127.7510 C.3    85  ILE85       0.0019
     29  CG2        1.9610  -42.3710  126.8390 C.3    85  ILE85       0.0020
     30  CD1       -1.1000  -43.5810  127.0540 C.3    85  ILE85       0.0001
     31  N          3.9530  -41.7400  129.0160 N.am   86  ASN86      -0.1960
     32  CA         5.0160  -40.7360  128.9470 C.3    86  ASN86       0.1819
     33  C          6.3170  -41.3980  128.5090 C.2    86  ASN86       0.2621
     34  O          6.4470  -42.6220  128.5710 O.2    86  ASN86      -0.2715
     35  CB         5.2220  -40.0510  130.3050 C.3    86  ASN86       0.1195
     36  CG         5.8840  -40.9590  131.3290 C.2    86  ASN86       0.2630
     37  OD1        7.0740  -41.2420  131.2530 O.2    86  ASN86      -0.2716
     38  ND2        5.1080  -41.4190  132.2990 N.am   86  ASN86      -0.0877
     39  N          7.2750  -40.5840  128.0670 N.am   87  LEU87      -0.1963
     40  CA         8.5760  -41.0780  127.6310 C.3    87  LEU87       0.1728
     41  C          9.6450  -40.7660  128.6550 C.2    87  LEU87       0.2616
     42  O         10.8020  -40.6700  128.2980 O.2    87  LEU87      -0.2715
     43  CB         8.9930  -40.3910  126.3450 C.3    87  LEU87       0.0311
     44  CG         8.1600  -40.7190  125.1250 C.3    87  LEU87       0.0022
     45  CD1        8.7460  -40.0440  123.9020 C.3    87  LEU87       0.0001
     46  CD2        8.1330  -42.2040  124.9510 C.3    87  LEU87       0.0001
     47  N          9.2710  -40.6230  129.9210 N.am   88  GLN88      -0.1977
     48  CA        10.2170  -40.2240  130.9610 C.3    88  GLN88       0.1601
     49  C         10.6990  -41.2920  131.8710 C.2    88  GLN88       0.2287
     50  O         11.6010  -41.0460  132.6590 O.2    88  GLN88      -0.2864
     51  CB         9.6040  -39.1440  131.8580 C.3    88  GLN88       0.0394
     52  CG         8.9340  -38.0210  131.1210 C.3    88  GLN88       0.0908
     53  CD         9.8830  -36.8930  130.8820 C.2    88  GLN88       0.2608
     54  OE1       10.4800  -36.3660  131.8200 O.2    88  GLN88      -0.2717
     55  NE2       10.0480  -36.5090  129.6220 N.am   88  GLN88      -0.0878
     56  N          6.4340  -35.7460  116.1450 N.3   105  PHE105     -0.1241
     57  CA         6.5240  -36.9810  115.3850 C.3   105  PHE105      0.1605
     58  C          5.2910  -37.8340  115.6240 C.2   105  PHE105      0.2264
     59  O          4.5190  -37.5490  116.5360 O.2   105  PHE105     -0.2867
     60  CB         7.7480  -37.7610  115.8560 C.3   105  PHE105      0.0534
     61  CG         7.8010  -37.9570  117.3550 C.ar  105  PHE105     -0.0203
     62  CD1        7.0810  -38.9770  117.9630 C.ar  105  PHE105     -0.0042
     63  CD2        8.5280  -37.0850  118.1630 C.ar  105  PHE105     -0.0042
     64  CE1        7.0750  -39.1200  119.3610 C.ar  105  PHE105     -0.0003
     65  CE2        8.5290  -37.2200  119.5580 C.ar  105  PHE105     -0.0003
     66  CZ         7.8000  -38.2360  120.1510 C.ar  105  PHE105     -0.0000
     67  N          3.8630  -41.7860  116.3680 N.3   107  SER107     -0.1217
     68  CA         4.4190  -42.8630  117.1710 C.3   107  SER107      0.1889
     69  C          4.0190  -44.2530  116.7400 C.2   107  SER107      0.2288
     70  O          2.8570  -44.4890  116.4210 O.2   107  SER107     -0.2866
     71  CB         3.9740  -42.7040  118.6160 C.3   107  SER107      0.2089
     72  OG         4.5740  -41.5850  119.2090 O.3   107  SER107     -0.2183
     73  N          3.7530  -47.9960  118.1620 N.3   109  ILE109     -0.1245
     74  CA         3.8100  -48.7360  119.4170 C.3   109  ILE109      0.1561
     75  C          3.7720  -50.2220  119.1400 C.2   109  ILE109      0.2260
     76  O          2.8660  -50.6930  118.4550 O.2   109  ILE109     -0.2867
     77  CB         2.6080  -48.4230  120.2990 C.3   109  ILE109      0.0252
     78  CG1        2.4810  -46.9140  120.4780 C.3   109  ILE109      0.0019
     79  CG2        2.7490  -49.1430  121.6320 C.3   109  ILE109      0.0019
     80  CD1        3.5430  -46.3380  121.3910 C.3   109  ILE109      0.0001
     81  N         -6.6500  -47.5100  125.0740 N.3   131  TYR131     -0.1241
     82  CA        -6.0810  -46.1750  125.2100 C.3   131  TYR131      0.1605
     83  C         -7.1840  -45.2620  125.7590 C.2   131  TYR131      0.2264
     84  O         -8.2370  -45.1000  125.1300 O.2   131  TYR131     -0.2867
     85  CB        -5.6030  -45.6750  123.8480 C.3   131  TYR131      0.0534
     86  CG        -5.1080  -44.2550  123.8850 C.ar  131  TYR131     -0.0201
     87  CD1       -5.5430  -43.3140  122.9430 C.ar  131  TYR131     -0.0009
     88  CD2       -4.2240  -43.8280  124.8810 C.ar  131  TYR131     -0.0009
     89  CE1       -5.1150  -41.9770  122.9880 C.ar  131  TYR131      0.0417
     90  CE2       -3.7880  -42.4930  124.9370 C.ar  131  TYR131      0.0417
     91  CZ        -4.2420  -41.5720  123.9850 C.ar  131  TYR131      0.1957
     92  OH        -3.8390  -40.2450  124.0570 O.3   131  TYR131     -0.2866
     93  N          0.6150  -50.6880  116.4070 N.3   166  PHE166     -0.1241
     94  CA        -0.2950  -49.7050  115.8250 C.3   166  PHE166      0.1605
     95  C          0.3670  -48.3420  115.9170 C.2   166  PHE166      0.2264
     96  O          1.2770  -48.1520  116.7110 O.2   166  PHE166     -0.2867
     97  CB        -1.6340  -49.6990  116.5530 C.3   166  PHE166      0.0534
     98  CG        -1.5120  -49.5240  118.0360 C.ar  166  PHE166     -0.0203
     99  CD1       -1.4450  -48.2410  118.5940 C.ar  166  PHE166     -0.0042
    100  CD2       -1.4270  -50.6320  118.8780 C.ar  166  PHE166     -0.0042
    101  CE1       -1.2920  -48.0500  119.9730 C.ar  166  PHE166     -0.0003
    102  CE2       -1.2730  -50.4670  120.2650 C.ar  166  PHE166     -0.0003
    103  CZ        -1.2040  -49.1690  120.8140 C.ar  166  PHE166     -0.0000
    104  N          0.1070  -44.0000  116.2330 N.3   168  LEU168     -0.1245
    105  CA        -0.6500  -42.9150  116.8380 C.3   168  LEU168      0.1561
    106  C         -0.1600  -41.6400  116.1430 C.2   168  LEU168      0.2260
    107  O          1.0340  -41.4940  115.8900 O.2   168  LEU168     -0.2867
    108  CB        -0.3190  -42.8130  118.3180 C.3   168  LEU168      0.0270
    109  CG        -0.9130  -43.8620  119.2290 C.3   168  LEU168      0.0019
    110  CD1       -0.2870  -43.6970  120.5950 C.3   168  LEU168      0.0001
    111  CD2       -2.4120  -43.6830  119.3150 C.3   168  LEU168      0.0001
    112  N          0.0810  -36.2860  118.9350 N.3   171  LEU171     -0.1245
    113  CA        -1.0270  -36.0300  119.8620 C.3   171  LEU171      0.1561
    114  C         -1.2470  -34.7090  120.5780 C.2   171  LEU171      0.2260
    115  O         -2.3040  -34.5110  121.1700 O.2   171  LEU171     -0.2867
    116  CB        -1.0050  -37.0840  120.9690 C.3   171  LEU171      0.0270
    117  CG        -0.8430  -38.5660  120.6630 C.3   171  LEU171      0.0019
    118  CD1       -0.3500  -39.2780  121.9040 C.3   171  LEU171      0.0001
    119  CD2       -2.1750  -39.1340  120.2250 C.3   171  LEU171      0.0001
    120  N          5.8400  -31.2620  120.9560 N.3   177  TYR177     -0.1227
    121  CA         5.8840  -31.7650  122.3260 C.3   177  TYR177      0.1736
    122  C          6.9250  -30.9490  123.0810 C.2   177  TYR177      0.2595
    123  O          7.9180  -30.5370  122.5000 O.2   177  TYR177     -0.2718
    124  CB         6.3120  -33.2300  122.3460 C.3   177  TYR177      0.0548
    125  CG         5.3080  -34.1970  121.7730 C.ar  177  TYR177     -0.0200
    126  CD1        4.0080  -34.2590  122.2660 C.ar  177  TYR177     -0.0009
    127  CD2        5.6760  -35.1060  120.7790 C.ar  177  TYR177     -0.0009
    128  CE1        3.0990  -35.2040  121.7940 C.ar  177  TYR177      0.0417
    129  CE2        4.7670  -36.0630  120.2960 C.ar  177  TYR177      0.0417
    130  CZ         3.4790  -36.1060  120.8110 C.ar  177  TYR177      0.1957
    131  OH         2.5650  -37.0400  120.3540 O.3   177  TYR177     -0.2866
    132  N          6.7100  -30.7090  124.3670 N.am  178  TYR178     -0.1962
    133  CA         7.6950  -29.9660  125.1410 C.3   178  TYR178      0.1771
    134  C          8.5960  -30.9850  125.8050 C.2   178  TYR178      0.2619
    135  O          8.1170  -31.7600  126.6290 O.2   178  TYR178     -0.2715
    136  CB         7.0390  -29.1450  126.2470 C.3   178  TYR178      0.0574
    137  CG         6.4090  -27.8590  125.7940 C.ar  178  TYR178     -0.0198
    138  CD1        5.0720  -27.8170  125.4110 C.ar  178  TYR178     -0.0009
    139  CD2        7.1280  -26.6710  125.7870 C.ar  178  TYR178     -0.0009
    140  CE1        4.4560  -26.6190  125.0320 C.ar  178  TYR178      0.0417
    141  CE2        6.5240  -25.4700  125.4130 C.ar  178  TYR178      0.0417
    142  CZ         5.1810  -25.4550  125.0380 C.ar  178  TYR178      0.1957
    143  OH         4.5580  -24.2720  124.7000 O.3   178  TYR178     -0.2866
    144  N          9.8830  -31.0150  125.4580 N.am  179  MET179     -0.1977
    145  CA        10.7780  -31.9650  126.1200 C.3   179  MET179      0.1605
    146  C         11.1790  -31.3530  127.4610 C.2   179  MET179      0.2287
    147  O         11.5730  -32.0630  128.3890 O.2   179  MET179     -0.2864
    148  CB        12.0150  -32.2550  125.2680 C.3   179  MET179      0.0413
    149  CG        11.7030  -33.0020  123.9870 C.3   179  MET179      0.0598
    150  SD        10.8210  -34.5330  124.3170 S.3   179  MET179     -0.1393
    151  CE         9.5430  -34.3090  123.3730 C.3   179  MET179      0.0692
    152  N          7.3690  -30.3100  132.8630 N.3   193  THR193     -0.1218
    153  CA         6.5710  -30.9200  131.8160 C.3   193  THR193      0.1862
    154  C          5.3650  -31.7310  132.2830 C.2   193  THR193      0.2287
    155  O          4.6720  -32.3170  131.4690 O.2   193  THR193     -0.2866
    156  CB         7.4370  -31.8020  130.9160 C.3   193  THR193      0.1770
    157  OG1        8.1400  -32.7650  131.7110 O.3   193  THR193     -0.2211
    158  CG2        8.4280  -30.9520  130.1670 C.3   193  THR193      0.0375
    159  N          2.5820  -32.3130  129.3470 N.3   197  ASN197     -0.1240
    160  CA         2.5000  -33.6170  128.7390 C.3   197  ASN197      0.1653
    161  C          1.5750  -34.6290  129.3670 C.2   197  ASN197      0.2266
    162  O          2.0090  -35.6180  129.9890 O.2   197  ASN197     -0.2867
    163  CB         3.9410  -34.1640  128.5310 C.3   197  ASN197      0.1155
    164  CG         4.8060  -33.2520  127.5520 C.2   197  ASN197      0.2627
    165  OD1        4.3200  -32.7350  126.5030 O.2   197  ASN197     -0.2716
    166  ND2        6.0790  -33.0710  127.9050 N.am  197  ASN197     -0.0877
    167  N         -1.0210  -37.1070  128.0850 N.3   199  MET199     -0.1245
    168  CA        -1.4880  -37.9100  126.9560 C.3   199  MET199      0.1570
    169  C         -2.4990  -39.0020  127.3410 C.2   199  MET199      0.2261
    170  O         -2.8140  -39.8800  126.5400 O.2   199  MET199     -0.2867
    171  CB        -0.2760  -38.5740  126.2650 C.3   199  MET199      0.0387
    172  CG         0.8720  -37.6190  125.8610 C.3   199  MET199      0.0595
    173  SD         0.1770  -36.1040  125.0910 S.3   199  MET199     -0.1393
    174  CE         1.4230  -34.7310  125.5180 C.3   199  MET199      0.0692
    175  N         -2.8360  -45.8010  129.4140 N.3   202  LEU202     -0.1245
    176  CA        -2.9210  -47.0430  128.6870 C.3   202  LEU202      0.1561
    177  C         -3.3760  -48.0130  129.7670 C.2   202  LEU202      0.2260
    178  O         -2.6870  -48.1950  130.7700 O.2   202  LEU202     -0.2867
    179  CB        -1.5760  -47.4810  128.1530 C.3   202  LEU202      0.0270
    180  CG        -1.7140  -48.8400  127.4680 C.3   202  LEU202      0.0019
    181  CD1       -2.1190  -48.6890  125.9950 C.3   202  LEU202      0.0001
    182  CD2       -0.3990  -49.5390  127.5420 C.3   202  LEU202      0.0001
    183  N          6.3190  -52.3030  126.4310 N.3   221  ILE221     -0.1245
    184  CA         5.8660  -51.4200  125.3890 C.3   221  ILE221      0.1561
    185  C          7.0360  -50.7460  124.7260 C.2   221  ILE221      0.2260
    186  O          7.8860  -50.1750  125.4010 O.2   221  ILE221     -0.2867
    187  CB         4.9130  -50.4230  126.0070 C.3   221  ILE221      0.0252
    188  CG1        3.7520  -51.2160  126.5970 C.3   221  ILE221      0.0019
    189  CG2        4.4090  -49.4260  124.9750 C.3   221  ILE221      0.0019
    190  CD1        2.9670  -50.4730  127.5540 C.3   221  ILE221      0.0001
    191  N          8.4600  -48.0430  121.7290 N.3   223  HIS223     -0.1241
    192  CA         8.0450  -46.8650  121.0010 C.3   223  HIS223      0.1621
    193  C          9.0560  -46.4600  119.9670 C.2   223  HIS223      0.2264
    194  O         10.2480  -46.3950  120.2450 O.2   223  HIS223     -0.2867
    195  CB         7.8360  -45.6990  121.9780 C.3   223  HIS223      0.0745
    196  CG         7.5650  -44.3800  121.3140 C.ar  223  HIS223      0.0817
    197  ND1        8.5670  -43.5730  120.8130 N.ar  223  HIS223     -0.2268
    198  CD2        6.4010  -43.7300  121.0580 C.ar  223  HIS223      0.1154
    199  CE1        8.0350  -42.4870  120.2790 C.ar  223  HIS223      0.1986
    200  NE2        6.7240  -42.5570  120.4160 N.ar  223  HIS223     -0.2212
    201  N          9.5700  -36.1190  134.4200 N.3   245  HIS245     -0.1241
    202  CA         9.1740  -34.7190  134.3030 C.3   245  HIS245      0.1621
    203  C          9.9470  -33.6940  135.0900 C.2   245  HIS245      0.2264
    204  O          9.5340  -32.5330  135.1570 O.2   245  HIS245     -0.2867
    205  CB         7.7150  -34.5860  134.6700 C.3   245  HIS245      0.0745
    206  CG         6.8180  -35.4150  133.8190 C.ar  245  HIS245      0.0817
    207  ND1        6.7060  -35.2240  132.4550 N.ar  245  HIS245     -0.2268
    208  CD2        5.9830  -36.4330  134.1300 C.ar  245  HIS245      0.1154
    209  CE1        5.8360  -36.0860  131.9620 C.ar  245  HIS245      0.1986
    210  NE2        5.3820  -36.8310  132.9580 N.ar  245  HIS245     -0.2212
@<TRIPOS>BOND
     1    57    58    1
     2    57    60    1
     3    57    56    1
     4    58    59    2
     5    94    95    1
     6    94    93    1
     7    94    97    1
     8    60    61    1
     9   107   106    2
    10    95    96    2
    11   106   105    1
    12   104   105    1
    13    67    68    1
    14    70    69    2
    15    97    98    1
    16    69    68    1
    17   105   108    1
    18    68    71    1
    19    61    62   ar
    20    61    63   ar
    21    62    64   ar
    22    98    99   ar
    23    98   100   ar
    24    73    74    1
    25    63    65   ar
    26   108   109    1
    27    76    75    2
    28    99   101   ar
    29    71    72    1
    30   100   102   ar
    31   112   113    1
    32    75    74    1
    33   109   111    1
    34   109   110    1
    35    64    66   ar
    36    74    77    1
    37    65    66   ar
    38   113   114    1
    39   113   116    1
    40   193   194    2
    41   193   192    1
    42   101   103   ar
    43   119   117    1
    44   102   103   ar
    45   199   200   ar
    46   199   197   ar
    47   129   127   ar
    48   129   130   ar
    49    77    78    1
    50    77    79    1
    51   131   130    1
    52   200   198   ar
    53    78    80    1
    54   114   115    2
    55   117   116    1
    56   117   118    1
    57   127   125   ar
    58   130   128   ar
    59   197   196   ar
    60   120   121    1
    61   192   191    1
    62   192   195    1
    63   198   196   ar
    64   196   195    1
    65   125   126   ar
    66   125   124    1
    67   128   126   ar
    68   121   124    1
    69   121   122    1
    70   123   122    2
    71    87    89   ar
    72    87    86   ar
    73    89    91   ar
    74   122   132   am
    75   151   150    1
    76    85    86    1
    77    85    82    1
    78    86    88   ar
    79    45    44    1
    80    91    92    1
    81    91    90   ar
    82   149   150    1
    83   149   148    1
    84   132   133    1
    85   143   142    1
    86   185   184    1
    87   185   186    2
    88    88    90   ar
    89    46    44    1
    90   189   187    1
    91   140   142   ar
    92   140   138   ar
    93   142   141   ar
    94    81    82    1
    95   173   174    1
    96   173   172    1
    97    44    43    1
    98    84    83    2
    99   133   134    1
   100   133   136    1
   101    82    83    1
   102   148   145    1
   103     7     5    1
   104   184   187    1
   105   184   183    1
   106   138   137   ar
   107   141   139   ar
   108     8     6    1
   109   144   134   am
   110   144   145    1
   111   139   137   ar
   112   137   136    1
   113   134   135    2
   114   172   171    1
   115   181   180    1
   116   187   188    1
   117   145   146    1
   118     6     5    1
   119   171   168    1
   120    43    40    1
   121   165   164    2
   122   170   169    2
   123     5     2    1
   124   188   190    1
   125     1     2    1
   126    29    27    1
   127   168   169    1
   128   168   167    1
   129    30    28    1
   130     2     3    1
   131   146   147    2
   132   180   182    1
   133   180   179    1
   134   164   166   am
   135   164   163    1
   136    40    39    1
   137    40    41    1
   138    28    27    1
   139    27    24    1
   140    39    33   am
   141   179   176    1
   142    42    41    2
   143    33    34    2
   144    33    32    1
   145   163   160    1
   146     3     4    2
   147    41    47   am
   148   176   175    1
   149   176   177    1
   150   160   159    1
   151   160   161    1
   152    21    22   ar
   153    21    19   ar
   154    32    31    1
   155    32    35    1
   156    31    25   am
   157    22    20   ar
   158    24    25    1
   159    24    23    1
   160    25    26    2
   161   161   162    2
   162    55    53   am
   163   177   178    2
   164    19    16   ar
   165    47    48    1
   166   158   156    1
   167    35    36    1
   168    20    18   ar
   169    53    52    1
   170    53    54    2
   171   156   157    1
   172   156   153    1
   173    48    51    1
   174    48    49    1
   175    16    18   ar
   176    16    14   ar
   177    52    51    1
   178    37    36    2
   179    36    38   am
   180    12    11    2
   181    18    17   ar
   182   155   154    2
   183   153   154    1
   184   153   152    1
   185    49    50    2
   186   209   207   ar
   187   209   210   ar
   188    14    13    1
   189    14    15   ar
   190   207   206   ar
   191    11    10    1
   192    13    10    1
   193    17    15   ar
   194   210   208   ar
   195    10     9    1
   196   206   208   ar
   197   206   205    1
   198   202   201    1
   199   202   205    1
   200   202   203    1
   201   203   204    2
