@<TRIPOS>MOLECULE
tmp/1fprA00.pdb
 243 229 0 0 0
SMALL
GASTEIGER

@<TRIPOS>ATOM
      1  N          6.8560  -10.4950   -8.3230 N.3    12  GLN12      -0.1231
      2  CA         7.3350   -9.3950   -7.5010 C.3    12  GLN12       0.1698
      3  C          7.5650   -9.8970   -6.0780 C.2    12  GLN12       0.2592
      4  O          8.1420   -9.1950   -5.2460 O.2    12  GLN12      -0.2718
      5  CB         6.3130   -8.2520   -7.5070 C.3    12  GLN12       0.0381
      6  CG         5.2620   -8.3640   -8.6170 C.3    12  GLN12       0.0905
      7  CD         4.8050   -7.0110   -9.1460 C.2    12  GLN12       0.2608
      8  OE1        5.2870   -5.9690   -8.7040 O.2    12  GLN12      -0.2717
      9  NE2        3.8700   -7.0230  -10.0980 N.am   12  GLN12      -0.0878
     10  N          7.1170  -11.1240   -5.8120 N.am   13  GLU13      -0.1966
     11  CA         7.2580  -11.7460   -4.4950 C.3    13  GLU13       0.1733
     12  C          8.6090  -12.4390   -4.3180 C.2    13  GLU13       0.2616
     13  O          9.0380  -13.2150   -5.1760 O.2    13  GLU13      -0.2715
     14  CB         6.1310  -12.7580   -4.2710 C.3    13  GLU13       0.0429
     15  CG         6.3570  -13.6990   -3.0920 C.3    13  GLU13       0.1163
     16  CD         5.6020  -15.0090   -3.2350 C.2    13  GLU13       0.3649
     17  OE1        4.6310  -15.0530   -4.0200 O.co2  13  GLU13      -0.2457
     18  OE2        5.9820  -15.9940   -2.5630 O.co2  13  GLU13      -0.2457
     19  N          9.2670  -12.1570   -3.1930 N.am   14  VAL14      -0.1963
     20  CA        10.5750  -12.7360   -2.8960 C.3    14  VAL14       0.1727
     21  C         10.6570  -13.3400   -1.4990 C.2    14  VAL14       0.2616
     22  O         11.5700  -14.1210   -1.2120 O.2    14  VAL14      -0.2715
     23  CB        11.7090  -11.6880   -3.0080 C.3    14  VAL14       0.0290
     24  CG1       12.6800  -12.0940   -4.1050 C.3    14  VAL14       0.0023
     25  CG2       11.1270  -10.2990   -3.2750 C.3    14  VAL14       0.0023
     26  N          9.7130  -12.9710   -0.6340 N.am   15  LYS15      -0.1977
     27  CA         9.6920  -13.4830    0.7360 C.3    15  LYS15       0.1596
     28  C          9.7890  -15.0000    0.7680 C.2    15  LYS15       0.2287
     29  O         10.2020  -15.5780    1.7740 O.2    15  LYS15      -0.2864
     30  CB         8.4160  -13.0480    1.4610 C.3    15  LYS15       0.0298
     31  CG         8.3410  -13.5140    2.9140 C.3    15  LYS15       0.0038
     32  CD         6.9510  -13.3100    3.5030 C.3    15  LYS15       0.0206
     33  CE         6.6470  -11.8380    3.7390 C.3    15  LYS15       0.1093
     34  NZ         7.8390  -10.9700    3.5100 N.3    15  LYS15      -0.1314
     35  N         14.2200  -16.1310    6.2350 N.3    20  ARG20      -0.1245
     36  CA        14.2670  -15.3010    7.4420 C.3    20  ARG20       0.1563
     37  C         14.4390  -16.2260    8.6400 C.2    20  ARG20       0.2260
     38  O         13.7610  -16.0690    9.6630 O.2    20  ARG20      -0.2867
     39  CB        12.9620  -14.5200    7.6140 C.3    20  ARG20       0.0307
     40  CG        12.8210  -13.3160    6.7010 C.3    20  ARG20       0.0489
     41  CD        11.4860  -13.3450    5.9810 C.3    20  ARG20       0.2205
     42  NE        10.4130  -13.8090    6.8540 N.pl3  20  ARG20      -0.0865
     43  CZ         9.8580  -13.0650    7.8030 C.cat  20  ARG20       0.5346
     44  NH1       10.2760  -11.8190    7.9990 N.pl3  20  ARG20       0.1354
     45  NH2        8.8870  -13.5650    8.5570 N.pl3  20  ARG20       0.1354
     46  N         10.1070   -6.8440   17.2820 N.3    33  ARG33      -0.1231
     47  CA         8.9780   -5.9940   17.6360 C.3    33  ARG33       0.1694
     48  C          7.7160   -6.6100   17.0700 C.2    33  ARG33       0.2592
     49  O          6.6660   -6.6060   17.7140 O.2    33  ARG33      -0.2718
     50  CB         9.1670   -4.5950   17.0490 C.3    33  ARG33       0.0321
     51  CG         9.3670   -3.5060   18.0760 C.3    33  ARG33       0.0489
     52  CD         9.6410   -2.1860   17.3980 C.3    33  ARG33       0.2205
     53  NE        10.3900   -1.2670   18.2510 N.pl3  33  ARG33      -0.0865
     54  CZ         9.9280   -0.0880   18.6560 C.cat  33  ARG33       0.5346
     55  NH1        8.7200    0.3100   18.2850 N.pl3  33  ARG33       0.1354
     56  NH2       10.6750    0.6960   19.4230 N.pl3  33  ARG33       0.1354
     57  N          7.8300   -7.1340   15.8530 N.am   34  TYR34      -0.1976
     58  CA         6.7050   -7.7670   15.1760 C.3    34  TYR34       0.1639
     59  C          7.1550   -9.1330   14.7010 C.2    34  TYR34       0.2290
     60  O          8.1000   -9.2410   13.9200 O.2    34  TYR34      -0.2864
     61  CB         6.2700   -6.9320   13.9760 C.3    34  TYR34       0.0560
     62  CG         6.1380   -5.4450   14.3030 C.ar   34  TYR34      -0.0198
     63  CD1        6.8000   -4.4960   13.5180 C.ar   34  TYR34      -0.0009
     64  CD2        5.3540   -5.0340   15.3850 C.ar   34  TYR34      -0.0009
     65  CE1        6.6780   -3.1320   13.8170 C.ar   34  TYR34       0.0417
     66  CE2        5.2310   -3.6720   15.6850 C.ar   34  TYR34       0.0417
     67  CZ         5.8960   -2.7220   14.9010 C.ar   34  TYR34       0.1957
     68  OH         5.7760   -1.3980   15.1910 O.3    34  TYR34      -0.2866
     69  N          6.0100  -10.9770   12.6150 N.3    36  ASN36      -0.1225
     70  CA         5.9140  -11.1090   11.1670 C.3    36  ASN36       0.1785
     71  C          7.0580  -10.3620   10.4950 C.2    36  ASN36       0.2597
     72  O          7.5160  -10.7290    9.4070 O.2    36  ASN36      -0.2718
     73  CB         4.5900  -10.5380   10.6860 C.3    36  ASN36       0.1169
     74  CG         3.4160  -11.1730   11.3770 C.2    36  ASN36       0.2627
     75  OD1        3.5840  -11.9580   12.3110 O.2    36  ASN36      -0.2716
     76  ND2        2.2150  -10.8450   10.9230 N.am   36  ASN36      -0.0877
     77  N          7.5180   -9.3120   11.1640 N.am   37  ILE37      -0.1966
     78  CA         8.5940   -8.4930   10.6440 C.3    37  ILE37       0.1727
     79  C          9.9430   -9.0700   11.0380 C.2    37  ILE37       0.2616
     80  O         10.2940   -9.1000   12.2180 O.2    37  ILE37      -0.2715
     81  CB         8.4730   -7.0340   11.1530 C.3    37  ILE37       0.0290
     82  CG1        7.9880   -6.1260   10.0180 C.3    37  ILE37       0.0022
     83  CG2        9.8140   -6.5500   11.6870 C.3    37  ILE37       0.0023
     84  CD1        8.9650   -6.0150    8.8620 C.3    37  ILE37       0.0001
     85  N         10.6860   -9.5330   10.0360 N.am   38  LEU38      -0.1977
     86  CA        12.0040  -10.1060   10.2570 C.3    38  LEU38       0.1596
     87  C         12.9220   -9.7600    9.1000 C.2    38  LEU38       0.2287
     88  O         12.4740   -9.4700    7.9960 O.2    38  LEU38      -0.2864
     89  CB        11.9260  -11.6320   10.3760 C.3    38  LEU38       0.0297
     90  CG        10.9580  -12.3040   11.3460 C.3    38  LEU38       0.0022
     91  CD1       10.9450  -13.7970   11.0410 C.3    38  LEU38       0.0001
     92  CD2       11.3800  -12.0550   12.7950 C.3    38  LEU38       0.0001
     93  N         15.8530  -10.4660    6.1900 N.3    40  PHE40      -0.1241
     94  CA        16.3250  -11.5260    5.3210 C.3    40  PHE40       0.1605
     95  C         17.6840  -11.8870    5.9220 C.2    40  PHE40       0.2264
     96  O         18.4390  -11.0050    6.3380 O.2    40  PHE40      -0.2867
     97  CB        16.4830  -11.0150    3.8870 C.3    40  PHE40       0.0534
     98  CG        15.1840  -10.8890    3.1330 C.ar   40  PHE40      -0.0203
     99  CD1       15.1340  -10.2320    1.9140 C.ar   40  PHE40      -0.0042
    100  CD2       14.0110  -11.4370    3.6340 C.ar   40  PHE40      -0.0042
    101  CE1       13.9330  -10.1250    1.2020 C.ar   40  PHE40      -0.0003
    102  CE2       12.8110  -11.3370    2.9340 C.ar   40  PHE40      -0.0003
    103  CZ        12.7730  -10.6780    1.7150 C.ar   40  PHE40      -0.0000
    104  N         14.0320    0.0850   20.8210 N.3    86  LEU86      -0.1245
    105  CA        13.5370   -1.0610   21.5690 C.3    86  LEU86       0.1561
    106  C         14.4620   -1.1820   22.7740 C.2    86  LEU86       0.2260
    107  O         15.6440   -1.4890   22.6230 O.2    86  LEU86      -0.2867
    108  CB        13.6060   -2.3300   20.7150 C.3    86  LEU86       0.0270
    109  CG        12.5440   -3.4020   20.9930 C.3    86  LEU86       0.0019
    110  CD1       11.1860   -2.9020   20.5090 C.3    86  LEU86       0.0001
    111  CD2       12.9110   -4.7160   20.2840 C.3    86  LEU86       0.0001
    112  N         11.1970    8.5880   13.8950 N.3   109  THR109     -0.1218
    113  CA        10.1390    8.4890   14.8780 C.3   109  THR109      0.1862
    114  C         10.4840    9.1160   16.2150 C.2   109  THR109      0.2287
    115  O         11.6490    9.1910   16.5950 O.2   109  THR109     -0.2866
    116  CB         9.7710    7.0130   15.1090 C.3   109  THR109      0.1770
    117  OG1        8.4150    6.9200   15.5620 O.3   109  THR109     -0.2211
    118  CG2       10.6990    6.3860   16.1460 C.3   109  THR109      0.0375
    119  N          5.1350    4.7240   25.9090 N.3   114  LYS114     -0.1245
    120  CA         3.7550    4.3980   26.2560 C.3   114  LYS114      0.1561
    121  C          3.6470    3.3340   27.3400 C.2   114  LYS114      0.2260
    122  O          3.8620    2.1400   27.0860 O.2   114  LYS114     -0.2867
    123  CB         2.9940    3.9420   25.0060 C.3   114  LYS114      0.0271
    124  CG         3.8410    3.1660   24.0020 C.3   114  LYS114      0.0035
    125  CD         2.9750    2.6200   22.8690 C.3   114  LYS114      0.0206
    126  CE         2.0430    1.5080   23.3640 C.3   114  LYS114      0.1093
    127  NZ         1.5160    0.6730   22.2490 N.3   114  LYS114     -0.1314
    128  N          5.1560    1.6560   28.9600 N.3   116  ARG116     -0.1231
    129  CA         6.4580    1.0160   29.1260 C.3   116  ARG116      0.1694
    130  C          7.5430    1.5640   28.1960 C.2   116  ARG116      0.2592
    131  O          8.2860    2.4700   28.5770 O.2   116  ARG116     -0.2718
    132  CB         6.3350   -0.5050   28.9430 C.3   116  ARG116      0.0321
    133  CG         5.6600   -0.9480   27.6510 C.3   116  ARG116      0.0489
    134  CD         6.4090   -2.1220   27.0360 C.3   116  ARG116      0.2205
    135  NE         6.0820   -2.3310   25.6270 N.pl3 116  ARG116     -0.0865
    136  CZ         6.9760   -2.6580   24.6920 C.cat 116  ARG116      0.5346
    137  NH1        8.2650   -2.8170   25.0060 N.pl3 116  ARG116      0.1354
    138  NH2        6.5780   -2.8370   23.4350 N.pl3 116  ARG116      0.1354
    139  N          7.6320    1.0390   26.9780 N.am  117  ASN117     -0.1960
    140  CA         8.6680    1.4990   26.0760 C.3   117  ASN117      0.1819
    141  C          8.5430    1.0630   24.6200 C.2   117  ASN117      0.2621
    142  O          9.5110    0.5490   24.0550 O.2   117  ASN117     -0.2715
    143  CB        10.0220    1.0330   26.6020 C.3   117  ASN117      0.1195
    144  CG        10.2080   -0.4770   26.4680 C.2   117  ASN117      0.2630
    145  OD1       10.9540   -0.9540   25.6020 O.2   117  ASN117     -0.2716
    146  ND2        9.5220   -1.2380   27.3240 N.am  117  ASN117     -0.0877
    147  N          7.3860    1.2510   23.9940 N.am  118  LYS118     -0.1977
    148  CA         7.2810    0.8640   22.5870 C.3   118  LYS118      0.1596
    149  C          8.5320    1.4200   21.9020 C.2   118  LYS118      0.2287
    150  O          9.3100    0.6790   21.2940 O.2   118  LYS118     -0.2864
    151  CB         6.0360    1.4710   21.9400 C.3   118  LYS118      0.0298
    152  CG         6.2910    2.0950   20.5710 C.3   118  LYS118      0.0038
    153  CD         5.3660    1.5230   19.4930 C.3   118  LYS118      0.0206
    154  CE         3.9510    2.0620   19.6550 C.3   118  LYS118      0.1093
    155  NZ         3.4450    2.7960   18.4640 N.3   118  LYS118     -0.1314
    156  N         12.7400    3.2480   12.6470 N.3   211  SER211     -0.1202
    157  CA        11.6060    3.8010   13.3710 C.3   211  SER211      0.2020
    158  C         11.3520    2.7940   14.4810 C.2   211  SER211      0.2619
    159  O         12.2940    2.3610   15.1570 O.2   211  SER211     -0.2717
    160  CB        10.3870    3.8870   12.4560 C.3   211  SER211      0.2103
    161  OG         9.9600    2.5950   12.0610 O.3   211  SER211     -0.2182
    162  N         10.0890    2.4300   14.6870 N.am  212  SER212     -0.1937
    163  CA         9.7720    1.4270   15.6990 C.3   212  SER212      0.2055
    164  C         10.3030    0.1190   15.0850 C.2   212  SER212      0.2642
    165  O         11.2560   -0.4880   15.5920 O.2   212  SER212     -0.2714
    166  CB         8.2630    1.3390   15.9110 C.3   212  SER212      0.2130
    167  OG         7.5670    2.0570   14.9100 O.3   212  SER212     -0.2179
    168  N          9.6830   -0.2740   13.9720 N.am  213  ALA213     -0.1977
    169  CA        10.0610   -1.4600   13.2060 C.3   213  ALA213      0.1597
    170  C         10.3750   -0.9790   11.7890 C.2   213  ALA213      0.2287
    171  O          9.4820   -0.8270   10.9640 O.2   213  ALA213     -0.2864
    172  CB         8.9200   -2.4620   13.1770 C.3   213  ALA213      0.0319
    173  N         10.2110   -0.2990    8.6390 N.3   215  ILE215     -0.1231
    174  CA         9.4720   -0.7880    7.4770 C.3   215  ILE215      0.1692
    175  C          8.8150    0.3300    6.6650 C.2   215  ILE215      0.2593
    176  O          9.3050    0.6960    5.5900 O.2   215  ILE215     -0.2718
    177  CB         8.3710   -1.8020    7.8940 C.3   215  ILE215      0.0266
    178  CG1        7.7350   -1.3740    9.2210 C.3   215  ILE215      0.0019
    179  CG2        8.9650   -3.2040    8.0290 C.3   215  ILE215      0.0020
    180  CD1        6.2750   -1.7920    9.3770 C.3   215  ILE215      0.0001
    181  N          7.7040    0.8640    7.1760 N.am  216  GLY216     -0.1942
    182  CA         7.0010    1.9310    6.4780 C.3   216  GLY216      0.2014
    183  C          7.7780    3.2340    6.3770 C.2   216  GLY216      0.2638
    184  O          8.3020    3.5840    5.3190 O.2   216  GLY216     -0.2714
    185  N          7.8430    3.9570    7.4880 N.am  217  ARG217     -0.1977
    186  CA         8.5650    5.2190    7.5560 C.3   217  ARG217      0.1597
    187  C          9.9740    5.0490    7.0270 C.2   217  ARG217      0.2287
    188  O         10.4580    5.8670    6.2340 O.2   217  ARG217     -0.2864
    189  CB         8.6390    5.6820    9.0060 C.3   217  ARG217      0.0334
    190  CG         7.2810    5.8760    9.6580 C.3   217  ARG217      0.0492
    191  CD         7.3240    6.9730   10.6860 C.3   217  ARG217      0.2205
    192  NE         5.9900    7.3100   11.1470 N.pl3 217  ARG217     -0.0865
    193  CZ         5.6850    7.5390   12.4160 C.cat 217  ARG217      0.5346
    194  NH1        6.6330    7.4630   13.3370 N.pl3 217  ARG217      0.1354
    195  NH2        4.4430    7.8710   12.7560 N.pl3 217  ARG217      0.1354
    196  N         10.3430   -1.4950   -5.0450 N.3   247  GLN247     -0.1245
    197  CA        10.4870   -2.9390   -5.1020 C.3   247  GLN247      0.1566
    198  C         11.9340   -3.3140   -4.7890 C.2   247  GLN247      0.2260
    199  O         12.1950   -4.1040   -3.8830 O.2   247  GLN247     -0.2867
    200  CB        10.0930   -3.4410   -6.4910 C.3   247  GLN247      0.0367
    201  CG         8.5910   -3.4050   -6.7370 C.3   247  GLN247      0.0905
    202  CD         7.7750   -3.5680   -5.4540 C.2   247  GLN247      0.2608
    203  OE1        7.0020   -2.6840   -5.0800 O.2   247  GLN247     -0.2717
    204  NE2        7.9430   -4.7070   -4.7790 N.am  247  GLN247     -0.0878
    205  N         12.2270   -3.3570   -1.3010 N.3   250  ARG250     -0.1245
    206  CA        11.5290   -4.4580   -0.6380 C.3   250  ARG250      0.1563
    207  C         12.3530   -5.7360   -0.7390 C.2   250  ARG250      0.2260
    208  O         12.5920   -6.4210    0.2560 O.2   250  ARG250     -0.2867
    209  CB        10.1600   -4.6780   -1.2730 C.3   250  ARG250      0.0307
    210  CG         9.0730   -3.8260   -0.6600 C.3   250  ARG250      0.0489
    211  CD         7.9900   -3.5100   -1.6850 C.3   250  ARG250      0.2205
    212  NE         7.0170   -2.5420   -1.1870 N.pl3 250  ARG250     -0.0865
    213  CZ         5.9660   -2.1180   -1.8820 C.cat 250  ARG250      0.5346
    214  NH1        5.7500   -2.5810   -3.1060 N.pl3 250  ARG250      0.1354
    215  NH2        5.1400   -1.2170   -1.3620 N.pl3 250  ARG250      0.1354
    216  N         11.9070   -6.9270    3.8680 N.3   254  SER254     -0.1202
    217  CA        10.4710   -6.9220    3.6490 C.3   254  SER254      0.2020
    218  C          9.7590   -5.9220    4.5340 C.2   254  SER254      0.2619
    219  O         10.0380   -5.8200    5.7270 O.2   254  SER254     -0.2717
    220  CB         9.9050   -8.3290    3.8910 C.3   254  SER254      0.2103
    221  OG        10.2290   -8.8180    5.1860 O.3   254  SER254     -0.2182
    222  N          8.8350   -5.1790    3.9410 N.am  255  GLY255     -0.1956
    223  CA         8.0810   -4.2140    4.7150 C.3   255  GLY255      0.1869
    224  C          8.3680   -2.7740    4.3750 C.2   255  GLY255      0.2309
    225  O          7.5880   -1.8980    4.7290 O.2   255  GLY255     -0.2863
    226  N          5.1670    0.3890    3.6280 N.3   258  GLN258     -0.1245
    227  CA         4.0190   -0.4390    3.9530 C.3   258  GLN258      0.1566
    228  C          2.6180   -0.0410    3.5300 C.2   258  GLN258      0.2260
    229  O          1.8030   -0.9060    3.2450 O.2   258  GLN258     -0.2867
    230  CB         3.9760   -0.6550    5.4640 C.3   258  GLN258      0.0367
    231  CG         5.2120   -1.2800    6.0540 C.3   258  GLN258      0.0905
    232  CD         4.9180   -2.6250    6.6630 C.2   258  GLN258      0.2608
    233  OE1        3.7790   -2.9200    7.0140 O.2   258  GLN258     -0.2717
    234  NE2        5.9480   -3.4510    6.7890 N.am  258  GLN258     -0.0878
    235  N          2.3590    6.3880    2.3840 N.3   262  GLN262     -0.1245
    236  CA         3.8040    6.4990    2.1770 C.3   262  GLN262      0.1566
    237  C          4.1350    6.3340    0.7160 C.2   262  GLN262      0.2260
    238  O          5.2080    6.7230    0.2620 O.2   262  GLN262     -0.2867
    239  CB         4.5930    5.4530    2.9760 C.3   262  GLN262      0.0367
    240  CG         3.8490    4.7360    4.1070 C.3   262  GLN262      0.0905
    241  CD         4.7970    3.9360    5.0080 C.2   262  GLN262      0.2608
    242  OE1        5.8300    3.4500    4.5480 O.2   262  GLN262     -0.2717
    243  NE2        4.4540    3.8100    6.2930 N.am  262  GLN262     -0.0878
@<TRIPOS>BOND
     1     9     7   am
     2     7     8    2
     3     7     6    1
     4     6     5    1
     5     1     2    1
     6     5     2    1
     7     2     3    1
     8   201   200    1
     9   201   202    1
    10   200   197    1
    11     3    10   am
    12     3     4    2
    13    10    11    1
    14   202   203    2
    15   202   204   am
    16    13    12    2
    17   197   196    1
    18   197   198    1
    19   198   199    2
    20    11    12    1
    21    11    14    1
    22    12    19   am
    23    14    15    1
    24    24    23    1
    25    17    16   ar
    26    25    23    1
    27    16    15    1
    28    16    18   ar
    29    19    20    1
    30   214   213    1
    31    23    20    1
    32    20    21    1
    33   213   215    1
    34   213   212    2
    35   211   212    1
    36   211   210    1
    37    21    22    2
    38    21    26   am
    39   205   206    1
    40   209   210    1
    41   209   206    1
    42   207   206    1
    43   207   208    2
    44    26    27    1
    45   238   237    2
    46   237   236    1
    47    27    28    1
    48    27    30    1
    49    28    29    2
    50   101   103   ar
    51   101    99   ar
    52    30    31    1
    53   103   102   ar
    54    99    98   ar
    55   236   235    1
    56   236   239    1
    57    31    32    1
    58   102   100   ar
    59   239   240    1
    60    98   100   ar
    61    98    97    1
    62   229   228    2
    63    32    33    1
    64    34    33    1
    65   228   227    1
    66   226   227    1
    67   217   216    1
    68   217   220    1
    69   217   218    1
    70    97    94    1
    71   220   221    1
    72   222   218   am
    73   222   223    1
    74   227   230    1
    75   240   241    1
    76   224   223    1
    77   224   225    2
    78   218   219    2
    79   242   241    2
    80   241   243   am
    81   184   183    2
    82    94    95    1
    83    94    93    1
    84   230   231    1
    85   176   175    2
    86    95    96    2
    87    41    40    1
    88    41    42    1
    89   231   232    1
    90   188   187    2
    91    35    36    1
    92   183   182    1
    93   183   185   am
    94   182   181    1
    95   232   234   am
    96   232   233    2
    97   175   181   am
    98   175   174    1
    99    40    39    1
   100    42    43    2
   101   187   186    1
   102    36    39    1
   103    36    37    1
   104   174   177    1
   105   174   173    1
   106   185   186    1
   107   186   189    1
   108    43    44    1
   109    43    45    1
   110   177   179    1
   111   177   178    1
   112    88    87    2
   113    37    38    2
   114    84    82    1
   115   189   190    1
   116    87    86    1
   117   178   180    1
   118    72    71    2
   119   190   191    1
   120    82    81    1
   121    85    86    1
   122    85    79   am
   123    86    89    1
   124    89    90    1
   125    71    77   am
   126    71    70    1
   127    78    79    1
   128    78    81    1
   129    78    77    1
   130    73    70    1
   131    73    74    1
   132   191   192    1
   133    76    74   am
   134   171   170    2
   135    79    80    2
   136    91    90    1
   137   192   193    2
   138    81    83    1
   139    70    69    1
   140    90    92    1
   141    74    75    2
   142   170   169    1
   143   161   160    1
   144   193   195    1
   145   193   194    1
   146   160   157    1
   147   156   157    1
   148   172   169    1
   149   169   168    1
   150   157   158    1
   151    63    65   ar
   152    63    62   ar
   153    65    67   ar
   154   112   113    1
   155    60    59    2
   156   168   164   am
   157    61    62    1
   158    61    58    1
   159    62    64   ar
   160   158   162   am
   161   158   159    2
   162   162   163    1
   163    59    58    1
   164   113   116    1
   165   113   114    1
   166    67    68    1
   167    67    66   ar
   168   167   166    1
   169   164   165    2
   170   164   163    1
   171   116   117    1
   172   116   118    1
   173    58    57    1
   174    64    66   ar
   175   163   166    1
   176    57    48   am
   177   114   115    2
   178    50    47    1
   179    50    51    1
   180    48    47    1
   181    48    49    2
   182    46    47    1
   183    52    51    1
   184    52    53    1
   185    53    54    2
   186    55    54    1
   187   155   154    1
   188    54    56    1
   189   153   154    1
   190   153   152    1
   191   111   109    1
   192   110   109    1
   193   152   151    1
   194   108   109    1
   195   108   105    1
   196   104   105    1
   197   150   149    2
   198   105   106    1
   199   149   148    1
   200   151   148    1
   201   127   126    1
   202   148   147    1
   203   107   106    2
   204   125   126    1
   205   125   124    1
   206   138   136    1
   207   147   141   am
   208   124   123    1
   209   142   141    2
   210   141   140    1
   211   136   137    1
   212   136   135    2
   213   123   120    1
   214   145   144    2
   215   135   134    1
   216   119   120    1
   217   140   143    1
   218   140   139    1
   219   120   121    1
   220   144   143    1
   221   144   146   am
   222   139   130   am
   223   134   133    1
   224   122   121    2
   225   133   132    1
   226   130   131    2
   227   130   129    1
   228   132   129    1
   229   128   129    1
