@<TRIPOS>MOLECULE
tmp/1fpuA00.pdb
 188 177 0 0 0
SMALL
GASTEIGER

@<TRIPOS>ATOM
      1  N         18.0400   64.2840    9.8160 N.3    24  LEU24      -0.1245
      2  CA        16.7360   64.5380   10.4080 C.3    24  LEU24       0.1561
      3  C         17.0150   65.4090   11.6310 C.2    24  LEU24       0.2260
      4  O         17.6100   64.9410   12.6010 O.2    24  LEU24      -0.2867
      5  CB        16.0840   63.2250   10.8360 C.3    24  LEU24       0.0270
      6  CG        15.7880   62.2970    9.6670 C.3    24  LEU24       0.0019
      7  CD1       15.1320   61.0290   10.1650 C.3    24  LEU24       0.0001
      8  CD2       14.8840   63.0200    8.6810 C.3    24  LEU24       0.0001
      9  N         15.1550   66.6770   14.0930 N.3    26  GLY26      -0.1225
     10  CA        14.4650   66.5320   15.3680 C.3    26  GLY26       0.1811
     11  C         15.3170   65.9280   16.4620 C.2    26  GLY26       0.2280
     12  O         15.5820   64.7160   16.4840 O.2    26  GLY26      -0.2866
     13  N         19.3800   62.9010   15.3890 N.3    29  TYR29      -0.1241
     14  CA        19.7970   61.5580   15.6150 C.3    29  TYR29       0.1605
     15  C         21.1700   61.1500   15.1180 C.2    29  TYR29       0.2264
     16  O         21.4620   59.9510   15.0130 O.2    29  TYR29      -0.2867
     17  CB        18.7510   60.6320   14.9980 C.3    29  TYR29       0.0534
     18  CG        17.3360   61.0260   15.3440 C.ar   29  TYR29      -0.0201
     19  CD1       16.6370   61.9740   14.5850 C.ar   29  TYR29      -0.0009
     20  CD2       16.7000   60.4700   16.4480 C.ar   29  TYR29      -0.0009
     21  CE1       15.3410   62.3500   14.9300 C.ar   29  TYR29       0.0417
     22  CE2       15.4110   60.8420   16.8000 C.ar   29  TYR29       0.0417
     23  CZ        14.7360   61.7730   16.0430 C.ar   29  TYR29       0.1957
     24  OH        13.4570   62.1110   16.4240 O.3    29  TYR29      -0.2866
     25  N         21.5210   60.1040   10.6240 N.3    32  VAL32      -0.1245
     26  CA        20.2870   59.6090   10.0310 C.3    32  VAL32       0.1561
     27  C         19.7430   60.6760    9.1000 C.2    32  VAL32       0.2260
     28  O         19.5640   61.8260    9.5120 O.2    32  VAL32      -0.2867
     29  CB        19.2360   59.2990   11.1050 C.3    32  VAL32       0.0252
     30  CG1       17.9710   58.7900   10.4550 C.3    32  VAL32       0.0019
     31  CG2       19.7960   58.2920   12.0860 C.3    32  VAL32       0.0019
     32  N         13.5750   56.9700    6.3800 N.3    45  ALA45      -0.1231
     33  CA        14.6270   57.3790    7.2950 C.3    45  ALA45       0.1694
     34  C         15.7780   56.4170    7.0310 C.2    45  ALA45       0.2592
     35  O         15.5700   55.2070    6.9720 O.2    45  ALA45      -0.2718
     36  CB        14.1470   57.2630    8.7470 C.3    45  ALA45       0.0304
     37  N         16.9860   56.9490    6.8770 N.am   46  VAL46      -0.1966
     38  CA        18.1420   56.1160    6.5940 C.3    46  VAL46       0.1727
     39  C         19.3050   56.3800    7.5340 C.2    46  VAL46       0.2616
     40  O         19.9440   57.4300    7.4600 O.2    46  VAL46      -0.2715
     41  CB        18.6390   56.3520    5.1590 C.3    46  VAL46       0.0290
     42  CG1       19.7910   55.3980    4.8370 C.3    46  VAL46       0.0023
     43  CG2       17.4980   56.1760    4.1830 C.3    46  VAL46       0.0023
     44  N         19.5800   55.4310    8.4200 N.am   47  LYS47      -0.1977
     45  CA        20.6950   55.5680    9.3420 C.3    47  LYS47       0.1596
     46  C         21.9110   55.0830    8.5770 C.2    47  LYS47       0.2287
     47  O         21.8810   54.0130    7.9680 O.2    47  LYS47      -0.2864
     48  CB        20.4980   54.7000   10.5810 C.3    47  LYS47       0.0298
     49  CG        21.6080   54.8460   11.6220 C.3    47  LYS47       0.0038
     50  CD        21.3850   53.9410   12.8240 C.3    47  LYS47       0.0206
     51  CE        22.3500   54.2810   13.9600 C.3    47  LYS47       0.1093
     52  NZ        22.2180   53.3750   15.1470 N.3    47  LYS47      -0.1314
     53  N         22.5390   45.3480   15.0140 N.3    62  GLU62      -0.1245
     54  CA        21.3170   46.1350   15.1100 C.3    62  GLU62       0.1567
     55  C         20.3980   45.7030   13.9780 C.2    62  GLU62       0.2260
     56  O         19.2310   45.3700   14.1990 O.2    62  GLU62      -0.2867
     57  CB        21.6310   47.6240   14.9700 C.3    62  GLU62       0.0388
     58  CG        20.5050   48.5310   15.4510 C.3    62  GLU62       0.1160
     59  CD        20.6880   49.9940   15.0650 C.2    62  GLU62       0.3649
     60  OE1       21.8120   50.5330   15.1710 O.co2  62  GLU62      -0.2457
     61  OE2       19.6860   50.6180   14.6700 O.co2  62  GLU62      -0.2457
     62  N         18.7960   42.4170   14.5450 N.3    65  VAL65      -0.1231
     63  CA        17.7100   42.4390   15.5270 C.3    65  VAL65       0.1692
     64  C         16.4050   42.9230   14.9120 C.2    65  VAL65       0.2591
     65  O         15.3390   42.3600   15.1670 O.2    65  VAL65      -0.2718
     66  CB        18.0380   43.3620   16.7180 C.3    65  VAL65       0.0266
     67  CG1       16.8170   43.4740   17.6470 C.3    65  VAL65       0.0020
     68  CG2       19.2450   42.8140   17.4830 C.3    65  VAL65       0.0020
     69  N         16.5050   43.9710   14.1000 N.am   66  MET66      -0.1979
     70  CA        15.3480   44.5590   13.4470 C.3    66  MET66       0.1605
     71  C         14.6840   43.6370   12.4250 C.2    66  MET66       0.2287
     72  O         13.5240   43.8310   12.0690 O.2    66  MET66      -0.2864
     73  CB        15.7530   45.8850   12.8010 C.3    66  MET66       0.0413
     74  CG        16.1240   46.9600   13.8350 C.3    66  MET66       0.0598
     75  SD        16.6620   48.5180   13.1030 S.3    66  MET66      -0.1393
     76  CE        18.2200   48.0820   12.5040 C.3    66  MET66       0.0692
     77  N         12.0110   41.3480   14.3370 N.3    69  ILE69      -0.1245
     78  CA        10.8260   41.9010   14.9720 C.3    69  ILE69       0.1561
     79  C          9.8740   42.5960   14.0260 C.2    69  ILE69       0.2260
     80  O         10.2880   43.3580   13.1490 O.2    69  ILE69      -0.2867
     81  CB        11.1990   42.8990   16.1090 C.3    69  ILE69       0.0252
     82  CG1       12.1710   43.9580   15.5870 C.3    69  ILE69       0.0019
     83  CG2       11.7960   42.1510   17.2870 C.3    69  ILE69       0.0019
     84  CD1       12.5470   44.9990   16.6150 C.3    69  ILE69       0.0001
     85  N          5.9480   49.0500   16.2980 N.3    74  LEU74      -0.1231
     86  CA         7.4140   49.0520   16.3160 C.3    74  LEU74       0.1693
     87  C          7.8310   49.6260   14.9690 C.2    74  LEU74       0.2591
     88  O          7.2980   49.2180   13.9410 O.2    74  LEU74      -0.2718
     89  CB         7.9680   47.6370   16.4970 C.3    74  LEU74       0.0284
     90  CG         7.8550   47.0030   17.8910 C.3    74  LEU74       0.0019
     91  CD1        8.5170   45.6470   17.8760 C.3    74  LEU74       0.0001
     92  CD2        8.5610   47.8670   18.9230 C.3    74  LEU74       0.0001
     93  N          8.7520   50.5920   14.9650 N.am   75  VAL75      -0.1980
     94  CA         9.1700   51.2190   13.7180 C.3    75  VAL75       0.1595
     95  C          9.4990   50.1260   12.7130 C.2    75  VAL75       0.2287
     96  O         10.3090   49.2430   12.9780 O.2    75  VAL75      -0.2864
     97  CB        10.3810   52.1630   13.9300 C.3    75  VAL75       0.0276
     98  CG1       11.6350   51.3650   14.2340 C.3    75  VAL75       0.0022
     99  CG2       10.5730   53.0640   12.7030 C.3    75  VAL75       0.0022
    100  N         20.4590   51.5260    6.7410 N.3    89  ILE89      -0.1245
    101  CA        19.4050   50.7880    7.4280 C.3    89  ILE89       0.1561
    102  C         18.2040   51.6830    7.1880 C.2    89  ILE89       0.2260
    103  O         18.1020   52.7590    7.7730 O.2    89  ILE89      -0.2867
    104  CB        19.6110   50.6310    8.9450 C.3    89  ILE89       0.0252
    105  CG1       20.6820   49.5900    9.2270 C.3    89  ILE89       0.0019
    106  CG2       18.3100   50.1610    9.5900 C.3    89  ILE89       0.0019
    107  CD1       20.8240   49.2780   10.6870 C.3    89  ILE89       0.0001
    108  N         14.2740   52.6470    7.2850 N.3    91  THR91      -0.1203
    109  CA        13.0790   52.5030    8.0930 C.3    91  THR91       0.1994
    110  C         12.0000   53.4220    7.5120 C.2    91  THR91       0.2618
    111  O         12.3010   54.3070    6.7060 O.2    91  THR91      -0.2717
    112  CB        13.4290   52.9000    9.5530 C.3    91  THR91       0.1784
    113  OG1       13.7240   51.7180   10.3070 O.3    91  THR91      -0.2211
    114  CG2       12.3390   53.6790   10.2000 C.3    91  THR91       0.0376
    115  N         10.7440   53.1920    7.8860 N.am   92  GLU92      -0.1965
    116  CA         9.6630   54.0620    7.4400 C.3    92  GLU92       0.1733
    117  C          9.9110   55.4130    8.1200 C.2    92  GLU92       0.2616
    118  O         10.6180   55.4970    9.1210 O.2    92  GLU92      -0.2715
    119  CB         8.3120   53.5220    7.8940 C.3    92  GLU92       0.0429
    120  CG         8.2550   53.2470    9.3930 C.3    92  GLU92       0.1163
    121  CD         6.8770   52.8410    9.8700 C.2    92  GLU92       0.3649
    122  OE1        6.7950   52.0060   10.7910 O.co2  92  GLU92      -0.2457
    123  OE2        5.8780   53.3560    9.3330 O.co2  92  GLU92      -0.2457
    124  N          9.3410   56.4720    7.5710 N.am   93  PHE93      -0.1960
    125  CA         9.4920   57.8060    8.1310 C.3    93  PHE93       0.1771
    126  C          8.1720   58.1180    8.8290 C.2    93  PHE93       0.2619
    127  O          7.1100   57.8950    8.2630 O.2    93  PHE93      -0.2715
    128  CB         9.7480   58.8110    7.0070 C.3    93  PHE93       0.0574
    129  CG         9.9030   60.2140    7.4820 C.ar   93  PHE93      -0.0200
    130  CD1       11.1160   60.6550    8.0050 C.ar   93  PHE93      -0.0042
    131  CD2        8.8240   61.0940    7.4530 C.ar   93  PHE93      -0.0042
    132  CE1       11.2510   61.9510    8.4930 C.ar   93  PHE93      -0.0003
    133  CE2        8.9480   62.3900    7.9390 C.ar   93  PHE93      -0.0003
    134  CZ        10.1660   62.8190    8.4620 C.ar   93  PHE93      -0.0000
    135  N          8.2340   58.6030   10.0640 N.am   94  MET94      -0.1977
    136  CA         7.0220   58.9180   10.8200 C.3    94  MET94       0.1605
    137  C          6.8070   60.4140   10.7680 C.2    94  MET94       0.2287
    138  O          7.5440   61.1880   11.3680 O.2    94  MET94      -0.2864
    139  CB         7.1630   58.4380   12.2630 C.3    94  MET94       0.0413
    140  CG         7.3200   56.9150   12.3990 C.3    94  MET94       0.0598
    141  SD         5.7520   56.0060   12.4790 S.3    94  MET94      -0.1393
    142  CE         5.1940   56.2010   10.8430 C.3    94  MET94       0.0692
    143  N          7.6630   62.9960   13.9190 N.3    97  GLY97      -0.1225
    144  CA         8.8290   62.9590   14.7920 C.3    97  GLY97       0.1811
    145  C          8.7160   62.2050   16.1020 C.2    97  GLY97       0.2280
    146  O          7.7550   61.4750   16.3290 O.2    97  GLY97      -0.2866
    147  N         14.2390   45.8090   25.6640 N.3   137  HIS137     -0.1241
    148  CA        14.4510   47.0710   24.9580 C.3   137  HIS137      0.1621
    149  C         15.6400   47.8570   25.5140 C.2   137  HIS137      0.2264
    150  O         16.5020   48.3040   24.7510 O.2   137  HIS137     -0.2867
    151  CB        13.1770   47.9320   24.9970 C.3   137  HIS137      0.0745
    152  CG        13.2510   49.1410   24.1180 C.ar  137  HIS137      0.0817
    153  ND1       14.1050   50.1940   24.3800 N.ar  137  HIS137     -0.2268
    154  CD2       12.6350   49.4350   22.9520 C.ar  137  HIS137      0.1154
    155  CE1       14.0110   51.0820   23.4040 C.ar  137  HIS137      0.1986
    156  NE2       13.1260   50.6430   22.5260 N.ar  137  HIS137     -0.2212
    157  N          7.9540   57.2770   18.1950 N.3   146  LEU146     -0.1245
    158  CA         7.6680   58.1120   17.0350 C.3   146  LEU146      0.1561
    159  C          6.1530   58.2730   16.8560 C.2   146  LEU146      0.2260
    160  O          5.3770   57.3890   17.2250 O.2   146  LEU146     -0.2867
    161  CB         8.2770   57.4600   15.7870 C.3   146  LEU146      0.0270
    162  CG         9.5800   57.9610   15.1480 C.3   146  LEU146      0.0019
    163  CD1       10.4100   58.7320   16.1270 C.3   146  LEU146      0.0001
    164  CD2       10.3360   56.7600   14.5930 C.3   146  LEU146      0.0001
    165  N         10.7650   52.7490   19.0590 N.3   156  ALA156     -0.1231
    166  CA        11.9740   52.5920   18.2730 C.3   156  ALA156      0.1694
    167  C         13.1430   52.5850   19.2360 C.2   156  ALA156      0.2592
    168  O         12.9700   52.4370   20.4500 O.2   156  ALA156     -0.2718
    169  CB        12.1270   53.7430   17.2920 C.3   156  ALA156      0.0304
    170  N         14.3430   52.7340   18.6890 N.am  157  ASP157     -0.1960
    171  CA        15.5450   52.7730   19.5080 C.3   157  ASP157      0.1840
    172  C         16.5920   53.4810   18.6660 C.2   157  ASP157      0.2622
    173  O         17.1650   52.8960   17.7320 O.2   157  ASP157     -0.2715
    174  CB        16.0100   51.3660   19.8740 C.3   157  ASP157      0.1450
    175  CG        17.1810   51.3880   20.8340 C.2   157  ASP157      0.3671
    176  OD1       17.7290   52.4820   21.0610 O.co2 157  ASP157     -0.2456
    177  OD2       17.5620   50.3240   21.3600 O.co2 157  ASP157     -0.2456
    178  N         16.8400   54.7410   19.0050 N.am  158  PHE158     -0.1974
    179  CA        17.7760   55.5510   18.2450 C.3   158  PHE158      0.1639
    180  C         19.2200   55.5310   18.7070 C.2   158  PHE158      0.2290
    181  O         20.0370   56.2410   18.1440 O.2   158  PHE158     -0.2864
    182  CB        17.2610   56.9900   18.2040 C.3   158  PHE158      0.0560
    183  CG        15.8190   57.0980   17.8070 C.ar  158  PHE158     -0.0200
    184  CD1       14.9390   57.8740   18.5450 C.ar  158  PHE158     -0.0042
    185  CD2       15.3360   56.4170   16.6940 C.ar  158  PHE158     -0.0042
    186  CE1       13.5990   57.9710   18.1820 C.ar  158  PHE158     -0.0003
    187  CE2       13.9950   56.5090   16.3250 C.ar  158  PHE158     -0.0003
    188  CZ        13.1320   57.2870   17.0700 C.ar  158  PHE158     -0.0000
@<TRIPOS>BOND
     1    43    41    1
     2    42    41    1
     3    41    38    1
     4    32    33    1
     5    38    37    1
     6    38    39    1
     7   111   110    2
     8   100   101    1
     9    37    34   am
    10    35    34    2
    11   128   129    1
    12   128   125    1
    13    34    33    1
    14   102   101    1
    15   102   103    2
    16   108   109    1
    17    33    36    1
    18   101   104    1
    19   116   115    1
    20   116   119    1
    21   116   117    1
    22   131   129   ar
    23   131   133   ar
    24    40    39    2
    25   129   130   ar
    26   110   115   am
    27   110   109    1
    28    39    44   am
    29   124   117   am
    30   124   125    1
    31   119   120    1
    32   133   134   ar
    33    47    46    2
    34   130   132   ar
    35   109   112    1
    36   117   118    2
    37   125   126    1
    38   127   126    2
    39    44    45    1
    40   134   132   ar
    41    46    45    1
    42     8     6    1
    43   126   135   am
    44   104   105    1
    45   104   106    1
    46    27    28    2
    47    27    26    1
    48   105   107    1
    49   123   121   ar
    50    45    48    1
    51   120   121    1
    52   112   114    1
    53   112   113    1
    54     6     7    1
    55     6     5    1
    56     1     2    1
    57   121   122   ar
    58    26    25    1
    59    26    29    1
    60   135   136    1
    61     2     5    1
    62     2     3    1
    63    30    29    1
    64    48    49    1
    65   137   136    1
    66   137   138    2
    67   136   139    1
    68   142   141    1
    69    29    31    1
    70    49    50    1
    71     3     4    2
    72    72    71    2
    73   139   140    1
    74   140   141    1
    75    71    70    1
    76    76    75    1
    77    99    97    1
    78    95    96    2
    79    95    94    1
    80    73    70    1
    81    73    74    1
    82    50    51    1
    83    75    74    1
    84    80    79    2
    85    70    69    1
    86    94    97    1
    87    94    93    1
    88   143   144    1
    89    97    98    1
    90    88    87    2
    91    51    52    1
    92    55    56    2
    93    55    54    1
    94    79    78    1
    95     9    10    1
    96    69    64   am
    97    77    78    1
    98    62    63    1
    99    19    21   ar
   100    19    18   ar
   101   164   162    1
   102    61    59   ar
   103   144   145    1
   104    64    65    2
   105    64    63    1
   106    21    23   ar
   107    93    87   am
   108    87    86    1
   109    57    54    1
   110    57    58    1
   111    78    81    1
   112    17    18    1
   113    17    14    1
   114    16    15    2
   115    53    54    1
   116    59    60   ar
   117    59    58    1
   118    15    14    1
   119   162   161    1
   120   162   163    1
   121    18    20   ar
   122    10    11    1
   123    13    14    1
   124    63    66    1
   125    82    81    1
   126    82    84    1
   127   161   158    1
   128    23    24    1
   129    23    22   ar
   130   145   146    2
   131    81    83    1
   132    85    86    1
   133    86    89    1
   134   187   185   ar
   135   187   188   ar
   136    20    22   ar
   137    11    12    2
   138    89    90    1
   139   185   183   ar
   140    66    68    1
   141    66    67    1
   142   159   158    1
   143   159   160    2
   144   158   157    1
   145   188   186   ar
   146   169   166    1
   147   173   172    2
   148   183   182    1
   149   183   184   ar
   150    91    90    1
   151    90    92    1
   152   181   180    2
   153   186   184   ar
   154   182   179    1
   155   179   180    1
   156   179   178    1
   157   166   165    1
   158   166   167    1
   159   172   178   am
   160   172   171    1
   161   170   167   am
   162   170   171    1
   163   167   168    2
   164   171   174    1
   165   174   175    1
   166   175   176   ar
   167   175   177   ar
   168   156   154   ar
   169   156   155   ar
   170   154   152   ar
   171   155   153   ar
   172   152   153   ar
   173   152   151    1
   174   150   149    2
   175   148   151    1
   176   148   149    1
   177   148   147    1
