@<TRIPOS>MOLECULE
tmp/1fpyC01.pdb
 148 139 0 0 0
SMALL
GASTEIGER

@<TRIPOS>ATOM
      1  N        -15.0150   30.6270  -73.1170 N.3   129  GLU129     -0.1245
      2  CA       -15.0400   29.1950  -72.7920 C.3   129  GLU129      0.1567
      3  C        -16.0680   29.0560  -71.7000 C.2   129  GLU129      0.2260
      4  O        -15.7500   29.0200  -70.5090 O.2   129  GLU129     -0.2867
      5  CB       -13.6670   28.7480  -72.2900 C.3   129  GLU129      0.0388
      6  CG       -12.6180   28.9390  -73.3420 C.3   129  GLU129      0.1160
      7  CD       -11.2110   28.9540  -72.8280 C.2   129  GLU129      0.3649
      8  OE1      -10.3400   28.7710  -73.6810 O.co2 129  GLU129     -0.2457
      9  OE2      -10.9520   29.1720  -71.6250 O.co2 129  GLU129     -0.2457
     10  N        -18.4060   27.1270  -69.4780 N.3   131  GLU131     -0.1245
     11  CA       -18.5920   25.8070  -68.8640 C.3   131  GLU131      0.1567
     12  C        -20.0170   25.6260  -68.2770 C.2   131  GLU131      0.2260
     13  O        -20.7610   26.5910  -68.1090 O.2   131  GLU131     -0.2867
     14  CB       -17.5050   25.5840  -67.7800 C.3   131  GLU131      0.0388
     15  CG       -16.0850   25.2510  -68.3350 C.3   131  GLU131      0.1160
     16  CD       -14.9120   25.4400  -67.3310 C.2   131  GLU131      0.3649
     17  OE1      -13.7370   25.0190  -67.6500 O.co2 131  GLU131     -0.2457
     18  OE2      -15.1780   26.0370  -66.2480 O.co2 131  GLU131     -0.2457
     19  N        -12.3310   14.6180  -65.5420 N.3   179  TYR179     -0.1241
     20  CA       -11.5830   15.1880  -66.6220 C.3   179  TYR179      0.1605
     21  C        -10.9920   14.0950  -67.4290 C.2   179  TYR179      0.2264
     22  O        -10.0830   13.3640  -67.0690 O.2   179  TYR179     -0.2867
     23  CB       -10.5880   16.1980  -66.0820 C.3   179  TYR179      0.0534
     24  CG       -10.0690   17.2490  -67.0780 C.ar  179  TYR179     -0.0201
     25  CD1      -10.8560   18.2800  -67.6090 C.ar  179  TYR179     -0.0009
     26  CD2       -8.7370   17.1830  -67.4430 C.ar  179  TYR179     -0.0009
     27  CE1      -10.3000   19.2340  -68.4440 C.ar  179  TYR179      0.0417
     28  CE2       -8.1810   18.1090  -68.2800 C.ar  179  TYR179      0.0417
     29  CZ        -8.9670   19.1360  -68.7630 C.ar  179  TYR179      0.1957
     30  OH        -8.4010   20.0950  -69.5620 O.3   179  TYR179     -0.2866
     31  N        -15.5000   18.3400  -74.5130 N.3   210  HIS210     -0.1241
     32  CA       -14.9240   17.4170  -73.5550 C.3   210  HIS210      0.1621
     33  C        -15.6520   17.4750  -72.2200 C.2   210  HIS210      0.2264
     34  O        -16.3730   18.4330  -71.9390 O.2   210  HIS210     -0.2867
     35  CB       -13.4610   17.8010  -73.3290 C.3   210  HIS210      0.0745
     36  CG       -13.2600   19.2000  -72.8140 C.ar  210  HIS210      0.0817
     37  ND1      -13.1350   19.4920  -71.4740 N.ar  210  HIS210     -0.2268
     38  CD2      -13.1170   20.3810  -73.4660 C.ar  210  HIS210      0.1154
     39  CE1      -12.9220   20.7880  -71.3200 C.ar  210  HIS210      0.1986
     40  NE2      -12.9050   21.3510  -72.5140 N.ar  210  HIS210     -0.2212
     41  N        -15.6040   17.8260  -68.1110 N.3   212  GLU212     -0.1231
     42  CA       -14.8480   18.8390  -67.3910 C.3   212  GLU212      0.1699
     43  C        -14.6660   18.3960  -65.9370 C.2   212  GLU212      0.2592
     44  O        -15.4790   17.6470  -65.4190 O.2   212  GLU212     -0.2718
     45  CB       -15.5590   20.1890  -67.5980 C.3   212  GLU212      0.0402
     46  CG       -15.1160   21.3530  -66.7220 C.3   212  GLU212      0.1161
     47  CD       -13.7210   21.8820  -67.0100 C.2   212  GLU212      0.3649
     48  OE1      -13.3420   21.9820  -68.1920 O.co2 212  GLU212     -0.2457
     49  OE2      -12.9990   22.2110  -66.0360 O.co2 212  GLU212     -0.2457
     50  N        -13.5990   18.8610  -65.2790 N.am  213  VAL213     -0.1980
     51  CA       -13.1770   18.5020  -63.9090 C.3   213  VAL213      0.1595
     52  C        -14.2000   17.9590  -62.8920 C.2   213  VAL213      0.2287
     53  O        -14.0630   16.8360  -62.4210 O.2   213  VAL213     -0.2864
     54  CB       -12.4560   19.7000  -63.2530 C.3   213  VAL213      0.0276
     55  CG1      -12.0140   19.3630  -61.8390 C.3   213  VAL213      0.0022
     56  CG2      -11.2450   20.1200  -64.0770 C.3   213  VAL213      0.0022
     57  N        -20.1250   17.9800  -65.2110 N.3   218  GLN218     -0.1245
     58  CA       -19.6300   19.2570  -65.7040 C.3   218  GLN218      0.1566
     59  C        -19.0690   19.0170  -67.1060 C.2   218  GLN218      0.2260
     60  O        -18.3030   18.0850  -67.3240 O.2   218  GLN218     -0.2867
     61  CB       -18.5610   19.8350  -64.8100 C.3   218  GLN218      0.0367
     62  CG       -18.1610   21.2220  -65.2700 C.3   218  GLN218      0.0905
     63  CD       -17.2290   21.9180  -64.3080 C.2   218  GLN218      0.2608
     64  OE1      -17.5340   22.9940  -63.7770 O.2   218  GLN218     -0.2717
     65  NE2      -16.0370   21.4840  -63.9360 N.am  218  GLN218     -0.0878
     66  N        -18.0200   21.0890  -71.1980 N.3   220  GLU220     -0.1245
     67  CA       -17.6820   22.3150  -71.9090 C.3   220  GLU220      0.1567
     68  C        -17.6110   22.0020  -73.3910 C.2   220  GLU220      0.2260
     69  O        -17.2240   20.8900  -73.7810 O.2   220  GLU220     -0.2867
     70  CB       -16.3170   22.9220  -71.4440 C.3   220  GLU220      0.0388
     71  CG       -15.9400   24.3320  -72.0790 C.3   220  GLU220      0.1160
     72  CD       -14.5100   24.8230  -71.7400 C.2   220  GLU220      0.3649
     73  OE1      -14.0700   24.7890  -70.5490 O.co2 220  GLU220     -0.2457
     74  OE2      -13.8020   25.2600  -72.6830 O.co2 220  GLU220     -0.2457
     75  N        -15.1540   21.8060  -58.7030 N.3   264  ASN264     -0.1225
     76  CA       -15.0550   22.9180  -59.5830 C.3   264  ASN264      0.1785
     77  C        -16.3200   23.6590  -59.8400 C.2   264  ASN264      0.2597
     78  O        -17.4150   23.0980  -59.9350 O.2   264  ASN264     -0.2718
     79  CB       -14.5020   22.4380  -60.9220 C.3   264  ASN264      0.1169
     80  CG       -12.9930   22.5450  -60.9770 C.2   264  ASN264      0.2627
     81  OD1      -12.4200   22.6950  -62.0550 O.2   264  ASN264     -0.2716
     82  ND2      -12.3420   22.4660  -59.8260 N.am  264  ASN264     -0.0877
     83  N        -16.1150   24.9480  -59.9630 N.am  265  GLY265     -0.1957
     84  CA       -17.1360   25.8440  -60.3280 C.3   265  GLY265      0.1869
     85  C        -16.9980   25.9600  -61.8360 C.2   265  GLY265      0.2309
     86  O        -15.9490   25.6550  -62.3820 O.2   265  GLY265     -0.2863
     87  N        -16.9140   28.2730  -65.1690 N.3   267  GLY267     -0.1225
     88  CA       -16.5220   29.6240  -65.5110 C.3   267  GLY267      0.1811
     89  C        -16.4640   29.9020  -67.0040 C.2   267  GLY267      0.2280
     90  O        -16.4310   28.9960  -67.8300 O.2   267  GLY267     -0.2866
     91  N        -14.0070   31.8520  -69.2630 N.3   269  HIS269     -0.1241
     92  CA       -12.7640   32.5710  -69.5520 C.3   269  HIS269      0.1621
     93  C        -12.9470   33.3450  -70.8470 C.2   269  HIS269      0.2264
     94  O        -13.6190   32.8690  -71.7820 O.2   269  HIS269     -0.2867
     95  CB       -11.5880   31.6070  -69.7280 C.3   269  HIS269      0.0745
     96  CG       -11.4340   30.6200  -68.6160 C.ar  269  HIS269      0.0817
     97  ND1      -10.7240   29.4460  -68.7610 N.ar  269  HIS269     -0.2268
     98  CD2      -11.9330   30.6100  -67.3550 C.ar  269  HIS269      0.1154
     99  CE1      -10.8020   28.7550  -67.6360 C.ar  269  HIS269      0.1986
    100  NE2      -11.5270   29.4370  -66.7670 N.ar  269  HIS269     -0.2212
    101  N        -17.4890   30.8380  -56.3350 N.3   321  ARG321     -0.1245
    102  CA       -16.5510   30.2140  -57.2630 C.3   321  ARG321      0.1563
    103  C        -15.1580   30.7900  -57.1370 C.2   321  ARG321      0.2260
    104  O        -14.1720   30.0570  -57.2170 O.2   321  ARG321     -0.2867
    105  CB       -17.0080   30.4630  -58.6880 C.3   321  ARG321      0.0307
    106  CG       -15.8980   30.4290  -59.7150 C.3   321  ARG321      0.0489
    107  CD       -16.4890   30.1750  -61.0910 C.3   321  ARG321      0.2205
    108  NE       -15.5080   30.3250  -62.1540 N.pl3 321  ARG321     -0.0865
    109  CZ       -15.0490   31.5010  -62.5590 C.cat 321  ARG321      0.5346
    110  NH1      -14.1600   31.5380  -63.5380 N.pl3 321  ARG321      0.1354
    111  NH2      -15.4860   32.6350  -61.9890 N.pl3 321  ARG321      0.1354
    112  N         -9.7110   25.7910  -57.0060 N.3   326  TYR326     -0.1227
    113  CA       -10.6530   25.2180  -57.9580 C.3   326  TYR326      0.1736
    114  C        -10.4550   25.8170  -59.3430 C.2   326  TYR326      0.2595
    115  O        -11.4570   25.9590  -60.1040 O.2   326  TYR326     -0.2718
    116  CB       -12.0920   25.4160  -57.4770 C.3   326  TYR326      0.0548
    117  CG       -12.3180   25.0130  -56.0360 C.ar  326  TYR326     -0.0200
    118  CD1      -12.1740   25.9310  -55.0070 C.ar  326  TYR326     -0.0009
    119  CD2      -12.6760   23.7110  -55.7060 C.ar  326  TYR326     -0.0009
    120  CE1      -12.3800   25.5690  -53.6890 C.ar  326  TYR326      0.0417
    121  CE2      -12.8880   23.3390  -54.3920 C.ar  326  TYR326      0.0417
    122  CZ       -12.7370   24.2730  -53.3880 C.ar  326  TYR326      0.1957
    123  OH       -12.9450   23.9040  -52.0780 O.3   326  TYR326     -0.2866
    124  N         -9.2310   26.0930  -59.7320 N.am  327  GLU327     -0.1965
    125  CA        -8.8920   26.6450  -61.0410 C.3   327  GLU327      0.1733
    126  C         -9.5790   27.9890  -61.3290 C.2   327  GLU327      0.2616
    127  O         -9.7030   28.3980  -62.4850 O.2   327  GLU327     -0.2715
    128  CB        -9.2010   25.6220  -62.1280 C.3   327  GLU327      0.0429
    129  CG        -8.9470   24.1780  -61.6900 C.3   327  GLU327      0.1163
    130  CD        -8.4790   23.2660  -62.8210 C.2   327  GLU327      0.3649
    131  OE1       -7.8410   23.7480  -63.7970 O.co2 327  GLU327     -0.2457
    132  OE2       -8.7620   22.0490  -62.7180 O.co2 327  GLU327     -0.2457
    133  N         -9.9850   28.6760  -60.2570 N.am  328  ALA328     -0.1977
    134  CA       -10.6420   29.9820  -60.3250 C.3   328  ALA328      0.1597
    135  C         -9.6600   30.9920  -59.7650 C.2   328  ALA328      0.2287
    136  O         -9.4120   31.0360  -58.5600 O.2   328  ALA328     -0.2864
    137  CB       -11.9050   29.9760  -59.5010 C.3   328  ALA328      0.0319
    138  N         -9.5790   35.1670  -67.2150 N.3   359  ARG359     -0.1245
    139  CA       -10.2510   34.0250  -66.6500 C.3   359  ARG359      0.1563
    140  C        -11.3580   34.2730  -65.6220 C.2   359  ARG359      0.2260
    141  O        -12.1670   33.3780  -65.4240 O.2   359  ARG359     -0.2867
    142  CB        -9.2030   33.1270  -66.0540 C.3   359  ARG359      0.0307
    143  CG        -9.7940   32.0340  -65.1930 C.3   359  ARG359      0.0489
    144  CD        -8.6910   31.0580  -64.8320 C.3   359  ARG359      0.2205
    145  NE        -7.9800   30.5790  -66.0200 N.pl3 359  ARG359     -0.0865
    146  CZ        -7.9050   29.2800  -66.2850 C.cat 359  ARG359      0.5346
    147  NH1       -8.4890   28.4240  -65.4560 N.pl3 359  ARG359      0.1354
    148  NH2       -7.2630   28.8350  -67.3490 N.pl3 359  ARG359      0.1354
@<TRIPOS>BOND
     1    31    32    1
     2    69    68    2
     3     8     7   ar
     4    32    35    1
     5    32    33    1
     6    38    36   ar
     7    38    40   ar
     8    68    67    1
     9     6     7    1
    10     6     5    1
    11    35    36    1
    12     1     2    1
    13     7     9   ar
    14    36    37   ar
    15     2     5    1
    16     2     3    1
    17    74    72   ar
    18    40    39   ar
    19    33    34    2
    20    71    72    1
    21    71    70    1
    22    67    70    1
    23    67    66    1
    24    94    93    2
    25    72    73   ar
    26     3     4    2
    27    37    39   ar
    28    93    92    1
    29    95    92    1
    30    95    96    1
    31    30    29    1
    32    92    91    1
    33    10    11    1
    34    11    12    1
    35    11    14    1
    36    29    27   ar
    37    29    28   ar
    38    97    96   ar
    39    97    99   ar
    40    96    98   ar
    41    27    25   ar
    42    15    14    1
    43    15    16    1
    44    28    26   ar
    45    12    13    2
    46    48    47   ar
    47    41    42    1
    48    90    89    2
    49    17    16   ar
    50    99   100   ar
    51    25    24   ar
    52    45    42    1
    53    45    46    1
    54    26    24   ar
    55    21    22    2
    56    21    20    1
    57    42    43    1
    58    98   100   ar
    59   148   146    1
    60    16    18   ar
    61    60    59    2
    62   138   139    1
    63    59    58    1
    64    24    23    1
    65    47    46    1
    66    47    49   ar
    67    89    88    1
    68   139   142    1
    69   139   140    1
    70    20    23    1
    71    20    19    1
    72   146   145    2
    73   146   147    1
    74   142   143    1
    75   145   144    1
    76    43    44    2
    77    43    50   am
    78    58    57    1
    79    58    61    1
    80   140   141    2
    81    88    87    1
    82    50    51    1
    83    62    61    1
    84    62    63    1
    85   143   144    1
    86    63    65   am
    87    63    64    2
    88    56    54    1
    89    51    54    1
    90    51    52    1
    91   131   130   ar
    92   110   109    1
    93    54    55    1
    94    52    53    2
    95   130   132   ar
    96   130   129    1
    97   109   108    2
    98   109   111    1
    99   127   126    2
   100    86    85    2
   101   108   107    1
   102   128   129    1
   103   128   125    1
   104    81    80    2
   105    85    84    1
   106   126   125    1
   107   126   133   am
   108   107   106    1
   109   125   124    1
   110    80    79    1
   111    80    82   am
   112    79    76    1
   113    84    83    1
   114   134   133    1
   115   134   135    1
   116   134   137    1
   117   115   114    2
   118    83    77   am
   119    78    77    2
   120    77    76    1
   121   135   136    2
   122   124   114   am
   123   106   105    1
   124    76    75    1
   125   114   113    1
   126   105   102    1
   127   113   116    1
   128   113   112    1
   129   116   117    1
   130   102   103    1
   131   102   101    1
   132   104   103    2
   133   117   119   ar
   134   117   118   ar
   135   119   121   ar
   136   118   120   ar
   137   121   122   ar
   138   120   122   ar
   139   122   123    1
