@<TRIPOS>MOLECULE
tmp/1fq0A00.pdb
 99 91 0 0 0
SMALL
GASTEIGER

@<TRIPOS>ATOM
      1  N         21.1320   26.1690   42.9450 N.3    20  VAL20      -0.1245
      2  CA        21.5390   27.0400   41.8330 C.3    20  VAL20       0.1561
      3  C         22.0780   28.2640   42.5440 C.2    20  VAL20       0.2260
      4  O         21.3200   29.0650   43.0520 O.2    20  VAL20      -0.2867
      5  CB        20.3270   27.3990   40.9340 C.3    20  VAL20       0.0252
      6  CG1       20.7650   28.2960   39.7950 C.3    20  VAL20       0.0019
      7  CG2       19.7030   26.1160   40.3710 C.3    20  VAL20       0.0019
      8  N         25.9850   23.9200   42.2330 N.3    45  GLU45      -0.1245
      9  CA        26.1090   24.5770   40.9380 C.3    45  GLU45       0.1567
     10  C         26.3740   26.0900   41.1040 C.2    45  GLU45       0.2260
     11  O         25.4650   26.8820   41.4070 O.2    45  GLU45      -0.2867
     12  CB        24.8380   24.3940   40.0900 C.3    45  GLU45       0.0388
     13  CG        24.8140   25.3180   38.8220 C.3    45  GLU45       0.1160
     14  CD        23.5130   25.2060   38.0470 C.2    45  GLU45       0.3649
     15  OE1       22.7390   24.2970   38.3530 O.co2  45  GLU45      -0.2457
     16  OE2       23.2660   26.0170   37.1230 O.co2  45  GLU45      -0.2457
     17  N         26.7910   29.3600   39.4490 N.3    47  THR47      -0.1218
     18  CA        26.5280   29.9770   38.1440 C.3    47  THR47       0.1862
     19  C         27.5770   31.0210   37.6890 C.2    47  THR47       0.2287
     20  O         28.1350   31.7380   38.5050 O.2    47  THR47      -0.2866
     21  CB        25.1270   30.6340   38.0980 C.3    47  THR47       0.1770
     22  OG1       25.0450   31.7300   39.0320 O.3    47  THR47      -0.2211
     23  CG2       24.0640   29.6000   38.4730 C.3    47  THR47       0.0375
     24  N         27.4980   33.9100   36.6480 N.3    49  ARG49      -0.1245
     25  CA        26.6840   35.0920   36.5260 C.3    49  ARG49       0.1563
     26  C         27.2170   36.2450   37.3830 C.2    49  ARG49       0.2260
     27  O         26.5750   37.2930   37.4870 O.2    49  ARG49      -0.2867
     28  CB        25.2750   34.7850   36.9420 C.3    49  ARG49       0.0307
     29  CG        24.5320   33.8220   36.0640 C.3    49  ARG49       0.0489
     30  CD        23.0940   34.1930   36.2370 C.3    49  ARG49       0.2205
     31  NE        22.2550   33.1550   36.7890 N.pl3  49  ARG49      -0.0865
     32  CZ        21.1650   33.4020   37.5180 C.cat  49  ARG49       0.5346
     33  NH1       20.7910   34.6550   37.8040 N.pl3  49  ARG49       0.1354
     34  NH2       20.4220   32.3820   37.9250 N.pl3  49  ARG49       0.1354
     35  N         27.6090   26.6010   36.4880 N.3    72  GLY72      -0.1210
     36  CA        26.3130   26.7830   35.8600 C.3    72  GLY72       0.1956
     37  C         26.4540   27.9170   34.8530 C.2    72  GLY72       0.2612
     38  O         27.4690   28.6320   34.8200 O.2    72  GLY72      -0.2717
     39  N         25.4360   28.0850   34.0340 N.am   73  THR73      -0.1952
     40  CA        25.4120   29.1230   33.0060 C.3    73  THR73       0.1897
     41  C         26.6380   29.0710   32.0940 C.2    73  THR73       0.2313
     42  O         27.1620   30.0910   31.6750 O.2    73  THR73      -0.2863
     43  CB        25.2950   30.5560   33.6320 C.3    73  THR73       0.1794
     44  OG1       24.6640   30.4650   34.9130 O.3    73  THR73      -0.2208
     45  CG2       24.4250   31.4820   32.7360 C.3    73  THR73       0.0378
     46  N         26.9260   22.8220   33.8710 N.3    92  ILE92      -0.1231
     47  CA        25.5230   22.9000   33.5450 C.3    92  ILE92       0.1692
     48  C         25.3160   24.1190   32.6820 C.2    92  ILE92       0.2593
     49  O         25.9000   25.1770   32.9330 O.2    92  ILE92      -0.2718
     50  CB        24.6520   23.0280   34.8220 C.3    92  ILE92       0.0266
     51  CG1       24.6280   21.6680   35.5400 C.3    92  ILE92       0.0019
     52  CG2       23.2610   23.4680   34.4420 C.3    92  ILE92       0.0020
     53  CD1       24.1370   21.7240   36.9960 C.3    92  ILE92       0.0001
     54  N         24.4890   23.9580   31.6580 N.am   93  SER93      -0.1939
     55  CA        24.1890   25.0530   30.7780 C.3    93  SER93       0.2040
     56  C         22.6820   25.1640   30.6690 C.2    93  SER93       0.2485
     57  O         21.9870   24.1750   30.7050 O.2    93  SER93      -0.2729
     58  CB        24.8480   24.8720   29.3800 C.3    93  SER93       0.2129
     59  OG        24.3380   23.7800   28.6500 O.3    93  SER93      -0.2179
     60  N         22.1620   26.3990   30.5350 N.am   94  PRO94      -0.2726
     61  CA        20.7250   26.6140   30.4230 C.3    94  PRO94       0.1402
     62  C         20.0850   26.0790   29.1450 C.2    94  PRO94       0.2269
     63  O         18.8900   25.8250   29.1420 O.2    94  PRO94      -0.2865
     64  CB        20.5800   28.1200   30.6330 C.3    94  PRO94       0.0296
     65  CG        21.8210   28.6810   30.0770 C.3    94  PRO94       0.0237
     66  CD        22.9100   27.6700   30.4120 C.3    94  PRO94       0.0939
     67  N         18.9940   18.9940   31.8460 N.3   133  LYS133     -0.1245
     68  CA        18.2560   19.9180   32.6830 C.3   133  LYS133      0.1561
     69  C         16.9580   20.2100   31.8510 C.2   133  LYS133      0.2260
     70  O         16.9710   20.1620   30.6270 O.2   133  LYS133     -0.2867
     71  CB        19.0180   21.2360   32.8700 C.3   133  LYS133      0.0271
     72  CG        20.2870   21.1470   33.7250 C.3   133  LYS133      0.0035
     73  CD        19.9910   20.3460   34.9910 C.3   133  LYS133      0.0206
     74  CE        20.5820   20.9820   36.2280 C.3   133  LYS133      0.1093
     75  NZ        20.0470   22.3460   36.3520 N.3   133  LYS133     -0.1314
     76  N         14.8940   23.2450   31.5040 N.3   135  PHE135     -0.1241
     77  CA        14.8980   24.6580   31.8720 C.3   135  PHE135      0.1605
     78  C         14.3180   25.5560   30.7850 C.2   135  PHE135      0.2264
     79  O         14.5190   25.2930   29.5800 O.2   135  PHE135     -0.2867
     80  CB        16.3500   25.0850   32.1390 C.3   135  PHE135      0.0534
     81  CG        16.4920   26.5450   32.5010 C.ar  135  PHE135     -0.0203
     82  CD1       16.1880   27.0000   33.7840 C.ar  135  PHE135     -0.0042
     83  CD2       16.8740   27.4620   31.5570 C.ar  135  PHE135     -0.0042
     84  CE1       16.2690   28.3500   34.1160 C.ar  135  PHE135     -0.0003
     85  CE2       16.9590   28.8140   31.8890 C.ar  135  PHE135     -0.0003
     86  CZ        16.6510   29.2520   33.1780 C.ar  135  PHE135     -0.0000
     87  N         14.6090   22.7290   36.3640 N.3   161  THR161     -0.1218
     88  CA        15.0720   23.9110   37.1000 C.3   161  THR161      0.1862
     89  C         14.3420   25.0600   36.4670 C.2   161  THR161      0.2287
     90  O         14.1810   25.0840   35.2560 O.2   161  THR161     -0.2866
     91  CB        16.6260   24.1850   36.9340 C.3   161  THR161      0.1770
     92  OG1       17.4070   23.1410   37.5340 O.3   161  THR161     -0.2211
     93  CG2       17.0170   25.4940   37.6430 C.3   161  THR161      0.0375
     94  N         16.8280   27.6220   43.7030 N.3   184  SER184     -0.1217
     95  CA        17.5270   28.7860   44.2540 C.3   184  SER184      0.1889
     96  C         17.2010   29.1550   45.6910 C.2   184  SER184      0.2288
     97  O         17.8820   30.0060   46.2850 O.2   184  SER184     -0.2866
     98  CB        17.1620   30.0070   43.4110 C.3   184  SER184      0.2089
     99  OG        17.0410   29.6350   42.0540 O.3   184  SER184     -0.2183
@<TRIPOS>BOND
     1    59    58    1
     2    63    62    2
     3    62    61    1
     4    58    55    1
     5    79    78    2
     6    65    66    1
     7    65    64    1
     8    66    60    1
     9    61    60    1
    10    61    64    1
    11    60    56   am
    12    70    69    2
    13    56    57    2
    14    56    55    1
    15    55    54    1
    16    78    77    1
    17    76    77    1
    18    83    85   ar
    19    83    81   ar
    20    54    48   am
    21    42    41    2
    22    67    68    1
    23    69    68    1
    24    77    80    1
    25    85    86   ar
    26    41    40    1
    27    80    81    1
    28    81    82   ar
    29    48    49    2
    30    48    47    1
    31    68    71    1
    32    45    43    1
    33    71    72    1
    34    40    43    1
    35    40    39    1
    36    86    84   ar
    37    47    46    1
    38    47    50    1
    39    43    44    1
    40    72    73    1
    41    82    84   ar
    42    39    37   am
    43    52    50    1
    44    38    37    2
    45    50    51    1
    46    37    36    1
    47    73    74    1
    48    90    89    2
    49    51    53    1
    50    36    35    1
    51    29    30    1
    52    29    28    1
    53    74    75    1
    54    30    31    1
    55    87    88    1
    56    89    88    1
    57    25    24    1
    58    25    28    1
    59    25    26    1
    60    31    32    2
    61    91    88    1
    62    91    92    1
    63    91    93    1
    64    16    14   ar
    65    26    27    2
    66    32    33    1
    67    32    34    1
    68    19    18    1
    69    19    20    2
    70    14    15   ar
    71    14    13    1
    72    21    18    1
    73    21    23    1
    74    21    22    1
    75    18    17    1
    76    13    12    1
    77     6     5    1
    78    12     9    1
    79     7     5    1
    80     5     2    1
    81     9    10    1
    82     9     8    1
    83    10    11    2
    84     2     3    1
    85     2     1    1
    86    99    98    1
    87     3     4    2
    88    98    95    1
    89    94    95    1
    90    95    96    1
    91    96    97    2
