@<TRIPOS>MOLECULE
tmp/1fqbA00.pdb
 140 138 0 0 0
SMALL
GASTEIGER

@<TRIPOS>ATOM
      1  N         21.2350   14.8920   18.3830 N.3    14  ASP14      -0.1225
      2  CA        19.9100   14.6090   17.8540 C.3    14  ASP14       0.1805
      3  C         19.0900   13.7520   18.8140 C.2    14  ASP14       0.2597
      4  O         18.0170   13.2740   18.4510 O.2    14  ASP14      -0.2718
      5  CB        20.0210   13.9230   16.4850 C.3    14  ASP14       0.1424
      6  CG        20.5200   12.4960   16.5860 C.2    14  ASP14       0.3668
      7  OD1       21.2890   12.2040   17.5270 O.co2  14  ASP14      -0.2456
      8  OD2       20.1510   11.6710   15.7230 O.co2  14  ASP14      -0.2456
      9  N         19.5970   13.5650   20.0360 N.am   15  LYS15      -0.1979
     10  CA        18.9090   12.7740   21.0640 C.3    15  LYS15       0.1596
     11  C         18.3730   13.6960   22.1560 C.2    15  LYS15       0.2287
     12  O         18.6630   14.8930   22.1660 O.2    15  LYS15      -0.2864
     13  CB        19.8590   11.7560   21.7150 C.3    15  LYS15       0.0298
     14  CG        20.5540   10.8040   20.7520 C.3    15  LYS15       0.0038
     15  CD        19.5750    9.9170   19.9950 C.3    15  LYS15       0.0206
     16  CE        20.3280    9.0230   19.0230 C.3    15  LYS15       0.1093
     17  NZ        19.4200    8.2260   18.1560 N.3    15  LYS15      -0.1314
     18  N         26.3980   -0.8860   17.1330 N.3    65  ASP65      -0.1239
     19  CA        27.4070   -1.4030   16.2170 C.3    65  ASP65       0.1674
     20  C         28.7470   -0.6700   16.2860 C.2    65  ASP65       0.2266
     21  O         29.8010   -1.2800   16.0850 O.2    65  ASP65      -0.2867
     22  CB        26.8710   -1.4340   14.7800 C.3    65  ASP65       0.1410
     23  CG        26.4590   -0.0770   14.2780 C.2    65  ASP65       0.3668
     24  OD1       25.5710    0.5460   14.8950 O.co2  65  ASP65      -0.2456
     25  OD2       27.0240    0.3630   13.2570 O.co2  65  ASP65      -0.2456
     26  N         15.5040    0.3130   17.3360 N.3   111  GLU111     -0.1245
     27  CA        14.9720    0.8590   16.0960 C.3   111  GLU111      0.1567
     28  C         15.1210   -0.1220   14.9470 C.2   111  GLU111      0.2260
     29  O         16.1350   -0.8140   14.8200 O.2   111  GLU111     -0.2867
     30  CB        15.6410    2.1890   15.7280 C.3   111  GLU111      0.0388
     31  CG        17.1120    2.1130   15.3920 C.3   111  GLU111      0.1160
     32  CD        17.5920    3.3470   14.6410 C.2   111  GLU111      0.3649
     33  OE1       17.1180    4.4620   14.9500 O.co2 111  GLU111     -0.2457
     34  OE2       18.4510    3.2010   13.7470 O.co2 111  GLU111     -0.2457
     35  N         13.4830    3.7400   -0.2670 N.3   150  ASN150     -0.1240
     36  CA        14.8780    3.8920   -0.6590 C.3   150  ASN150      0.1653
     37  C         15.5030    2.5990   -1.1730 C.2   150  ASN150      0.2266
     38  O         15.6690    1.6390   -0.4260 O.2   150  ASN150     -0.2867
     39  CB        15.6790    4.4360    0.5270 C.3   150  ASN150      0.1155
     40  CG        17.1040    4.7880    0.1590 C.2   150  ASN150      0.2627
     41  OD1       17.4690    4.7980   -1.0140 O.2   150  ASN150     -0.2716
     42  ND2       17.9150    5.0920    1.1660 N.am  150  ASN150     -0.0877
     43  N         20.1850    2.1240   -0.5380 N.3   153  GLU153     -0.1231
     44  CA        20.9010    1.6180    0.6320 C.3   153  GLU153      0.1684
     45  C         20.4530    0.2030    0.9930 C.2   153  GLU153      0.2434
     46  O         19.2670   -0.0450    1.2210 O.2   153  GLU153     -0.2733
     47  CB        20.6780    2.5440    1.8300 C.3   153  GLU153      0.0402
     48  CG        21.4570    3.8470    1.7760 C.3   153  GLU153      0.1161
     49  CD        22.9560    3.6280    1.7880 C.2   153  GLU153      0.3649
     50  OE1       23.4340    2.8140    2.6090 O.co2 153  GLU153     -0.2457
     51  OE2       23.6590    4.2770    0.9880 O.co2 153  GLU153     -0.2457
     52  N         21.4060   -0.7390    1.0680 N.am  154  PRO154     -0.2718
     53  CA        21.1100   -2.1360    1.4010 C.3   154  PRO154      0.1535
     54  C         20.3380   -2.3020    2.7090 C.2   154  PRO154      0.2599
     55  O         19.6300   -3.2880    2.8960 O.2   154  PRO154     -0.2715
     56  CB        22.4950   -2.7800    1.4400 C.3   154  PRO154      0.0310
     57  CG        23.3750   -1.6550    1.8880 C.3   154  PRO154      0.0237
     58  CD        22.8600   -0.5030    1.0560 C.3   154  PRO154      0.0939
     59  N         20.4740   -1.3350    3.6100 N.am  155  TYR155     -0.1960
     60  CA        19.7670   -1.3750    4.8870 C.3   155  TYR155      0.1771
     61  C         18.2590   -1.4560    4.6470 C.2   155  TYR155      0.2619
     62  O         17.5420   -2.1370    5.3830 O.2   155  TYR155     -0.2715
     63  CB        20.0820   -0.1120    5.6970 C.3   155  TYR155      0.0574
     64  CG        19.3180    0.0250    7.0010 C.ar  155  TYR155     -0.0198
     65  CD1       19.8100   -0.5270    8.1860 C.ar  155  TYR155     -0.0009
     66  CD2       18.1140    0.7300    7.0520 C.ar  155  TYR155     -0.0009
     67  CE1       19.1180   -0.3730    9.3980 C.ar  155  TYR155      0.0417
     68  CE2       17.4160    0.8900    8.2540 C.ar  155  TYR155      0.0417
     69  CZ        17.9230    0.3400    9.4190 C.ar  155  TYR155      0.1957
     70  OH        17.2410    0.5150   10.6030 O.3   155  TYR155     -0.2866
     71  N         17.7910   -0.7620    3.6110 N.am  156  PHE156     -0.1974
     72  CA        16.3650   -0.7200    3.2710 C.3   156  PHE156      0.1639
     73  C         15.8400   -1.9000    2.4560 C.2   156  PHE156      0.2290
     74  O         14.6700   -2.2700    2.5840 O.2   156  PHE156     -0.2864
     75  CB        16.0290    0.5700    2.5070 C.3   156  PHE156      0.0560
     76  CG        16.0210    1.8050    3.3600 C.ar  156  PHE156     -0.0200
     77  CD1       17.2100    2.4470    3.6940 C.ar  156  PHE156     -0.0042
     78  CD2       14.8200    2.3250    3.8360 C.ar  156  PHE156     -0.0042
     79  CE1       17.2030    3.5890    4.4910 C.ar  156  PHE156     -0.0003
     80  CE2       14.7990    3.4680    4.6360 C.ar  156  PHE156     -0.0003
     81  CZ        15.9910    4.0990    4.9640 C.ar  156  PHE156     -0.0000
     82  N         15.8060    7.8290   -0.8710 N.3   210  TYR210     -0.1241
     83  CA        15.1770    8.2670    0.3670 C.3   210  TYR210      0.1605
     84  C         14.3010    9.5040    0.1960 C.2   210  TYR210      0.2264
     85  O         13.1140    9.4810    0.5210 O.2   210  TYR210     -0.2867
     86  CB        16.2460    8.5280    1.4320 C.3   210  TYR210      0.0534
     87  CG        15.6820    8.7480    2.8200 C.ar  210  TYR210     -0.0201
     88  CD1       15.0450    9.9410    3.1580 C.ar  210  TYR210     -0.0009
     89  CD2       15.7480    7.7430    3.7820 C.ar  210  TYR210     -0.0009
     90  CE1       14.4830   10.1230    4.4170 C.ar  210  TYR210      0.0417
     91  CE2       15.1900    7.9160    5.0430 C.ar  210  TYR210      0.0417
     92  CZ        14.5600    9.1060    5.3530 C.ar  210  TYR210      0.1957
     93  OH        14.0030    9.2720    6.5990 O.3   210  TYR210     -0.2866
     94  N         12.6420    7.4620   13.0350 N.3   230  TRP230     -0.1241
     95  CA        13.2630    8.7650   12.8230 C.3   230  TRP230      0.1605
     96  C         12.5390    9.5990   11.7680 C.2   230  TRP230      0.2264
     97  O         12.6440   10.8280   11.7560 O.2   230  TRP230     -0.2867
     98  CB        14.7220    8.5770   12.4010 C.3   230  TRP230      0.0550
     99  CG        14.8660    7.8010   11.1270 C.ar  230  TRP230      0.0003
    100  CD1       14.6420    8.2560    9.8580 C.ar  230  TRP230      0.0946
    101  CD2       15.2050    6.4140   11.0030 C.ar  230  TRP230      0.0152
    102  NE1       14.8160    7.2360    8.9510 N.ar  230  TRP230     -0.2442
    103  CE2       15.1620    6.0950    9.6280 C.ar  230  TRP230      0.0810
    104  CE3       15.5400    5.4100   11.9210 C.ar  230  TRP230      0.0012
    105  CZ2       15.4410    4.8110    9.1470 C.ar  230  TRP230      0.0191
    106  CZ3       15.8190    4.1330   11.4440 C.ar  230  TRP230      0.0001
    107  CH2       15.7670    3.8460   10.0680 C.ar  230  TRP230      0.0015
    108  N         22.2560   -5.6030   14.1760 N.3   330  MET330     -0.1245
    109  CA        23.3460   -5.3660   13.2360 C.3   330  MET330      0.1570
    110  C         24.6270   -5.9040   13.8650 C.2   330  MET330      0.2261
    111  O         24.9480   -5.5780   15.0070 O.2   330  MET330     -0.2867
    112  CB        23.5270   -3.8770   12.9560 C.3   330  MET330      0.0387
    113  CG        22.4100   -3.2280   12.1700 C.3   330  MET330      0.0595
    114  SD        22.9040   -1.5790   11.6400 S.3   330  MET330     -0.1393
    115  CE        22.6010   -0.6290   13.1410 C.3   330  MET330      0.0692
    116  N         28.0950   -4.2270    4.0540 N.3   340  TRP340     -0.1241
    117  CA        27.3190   -3.0830    3.5790 C.3   340  TRP340      0.1605
    118  C         27.7210   -2.6290    2.1810 C.2   340  TRP340      0.2264
    119  O         26.8770   -2.5180    1.2910 O.2   340  TRP340     -0.2867
    120  CB        27.4650   -1.9000    4.5400 C.3   340  TRP340      0.0550
    121  CG        26.7820   -2.0740    5.8700 C.ar  340  TRP340      0.0003
    122  CD1       27.3170   -1.8170    7.0980 C.ar  340  TRP340      0.0946
    123  CD2       25.4170   -2.4520    6.1000 C.ar  340  TRP340      0.0152
    124  NE1       26.3740   -2.0040    8.0770 N.ar  340  TRP340     -0.2442
    125  CE2       25.1980   -2.3930    7.4940 C.ar  340  TRP340      0.0810
    126  CE3       24.3580   -2.8300    5.2650 C.ar  340  TRP340      0.0012
    127  CZ2       23.9610   -2.6960    8.0740 C.ar  340  TRP340      0.0191
    128  CZ3       23.1270   -3.1320    5.8410 C.ar  340  TRP340      0.0001
    129  CH2       22.9410   -3.0620    7.2330 C.ar  340  TRP340      0.0015
    130  N         25.5860   -3.2330   -1.0730 N.3   344  ARG344     -0.1245
    131  CA        25.0690   -2.0010   -1.6490 C.3   344  ARG344      0.1563
    132  C         25.2980   -2.0690   -3.1540 C.2   344  ARG344      0.2260
    133  O         24.4140   -1.7440   -3.9450 O.2   344  ARG344     -0.2867
    134  CB        25.7830   -0.7680   -1.0780 C.3   344  ARG344      0.0307
    135  CG        25.3350    0.5400   -1.7480 C.3   344  ARG344      0.0489
    136  CD        26.0870    1.7710   -1.2540 C.3   344  ARG344      0.2205
    137  NE        25.8130    2.0620    0.1490 N.pl3 344  ARG344     -0.0865
    138  CZ        26.6760    1.8490    1.1370 C.cat 344  ARG344      0.5346
    139  NH1       27.8760    1.3470    0.8750 N.pl3 344  ARG344      0.1354
    140  NH2       26.3370    2.1300    2.3900 N.pl3 344  ARG344      0.1354
@<TRIPOS>BOND
     1   133   132    2
     2   132   131    1
     3   135   136    1
     4   135   134    1
     5   131   134    1
     6   131   130    1
     7   136   137    1
     8    37    36    1
     9    37    38    2
    10    41    40    2
    11    82    83    1
    12    36    35    1
    13    36    39    1
    14    43    44    1
    15   137   138    2
    16    40    39    1
    17    40    42   am
    18    84    83    1
    19    84    85    2
    20    83    86    1
    21    44    45    1
    22    44    47    1
    23   139   138    1
    24    51    49   ar
    25    45    52   am
    26    45    46    2
    27    58    52    1
    28    58    57    1
    29    52    53    1
    30   138   140    1
    31   119   118    2
    32    53    56    1
    33    53    54    1
    34    86    87    1
    35    56    57    1
    36    48    49    1
    37    48    47    1
    38    49    50   ar
    39   118   117    1
    40    73    74    2
    41    73    72    1
    42    75    72    1
    43    75    76    1
    44    54    55    2
    45    54    59   am
    46    87    88   ar
    47    87    89   ar
    48    88    90   ar
    49    72    71    1
    50    76    77   ar
    51    76    78   ar
    52   117   116    1
    53   117   120    1
    54    59    60    1
    55    71    61   am
    56    77    79   ar
    57    89    91   ar
    58    78    80   ar
    59    90    92   ar
    60    79    81   ar
    61   120   121    1
    62    80    81   ar
    63    61    60    1
    64    61    62    2
    65    60    63    1
    66    91    92   ar
    67   126   128   ar
    68   126   123   ar
    69    92    93    1
    70    63    64    1
    71   128   129   ar
    72   121   123   ar
    73   121   122   ar
    74   123   125   ar
    75    64    66   ar
    76    64    65   ar
    77    66    68   ar
    78   122   124   ar
    79   129   127   ar
    80   125   127   ar
    81   125   124   ar
    82    65    67   ar
    83    68    69   ar
    84   102   103   ar
    85   102   100   ar
    86   105   103   ar
    87   105   107   ar
    88    67    69   ar
    89    69    70    1
    90   103   101   ar
    91   100    99   ar
    92   107   106   ar
    93   101    99   ar
    94   101   104   ar
    95    99    98    1
    96   106   104   ar
    97   114   113    1
    98   114   115    1
    99    97    96    2
   100    96    95    1
   101   113   112    1
   102    98    95    1
   103    95    94    1
   104   112   109    1
   105   109   110    1
   106   109   108    1
   107    25    23   ar
   108    34    32   ar
   109   110   111    2
   110    23    22    1
   111    23    24   ar
   112    32    33   ar
   113    32    31    1
   114    22    19    1
   115    29    28    2
   116    28    27    1
   117    31    30    1
   118     8     6   ar
   119    30    27    1
   120    21    20    2
   121    27    26    1
   122    19    20    1
   123    19    18    1
   124     5     6    1
   125     5     2    1
   126     6     7   ar
   127     2     1    1
   128     2     3    1
   129    17    16    1
   130     4     3    2
   131     3     9   am
   132    16    15    1
   133    15    14    1
   134     9    10    1
   135    14    13    1
   136    10    13    1
   137    10    11    1
   138    11    12    2
