@<TRIPOS>MOLECULE
tmp/1fqdA00.pdb
 254 249 0 0 0
SMALL
GASTEIGER

@<TRIPOS>ATOM
      1  N         -3.8530   16.1340   38.5470 N.3    11  ILE11      -0.1231
      2  CA        -2.7580   15.2090   38.2940 C.3    11  ILE11       0.1692
      3  C         -1.8790   15.8000   37.1940 C.2    11  ILE11       0.2592
      4  O         -2.3460   16.6070   36.4040 O.2    11  ILE11      -0.2718
      5  CB        -3.2910   13.8250   37.8880 C.3    11  ILE11       0.0266
      6  CG1       -2.1740   12.7830   38.0060 C.3    11  ILE11       0.0019
      7  CG2       -3.8550   13.8820   36.4890 C.3    11  ILE11       0.0020
      8  CD1       -2.6220   11.4450   38.5310 C.3    11  ILE11       0.0001
      9  N         -0.6080   15.4140   37.1460 N.am   12  ASN12      -0.1974
     10  CA         0.3050   15.9690   36.1580 C.3    12  ASN12       0.1688
     11  C          0.1700   15.3660   34.7730 C.2    12  ASN12       0.2292
     12  O         -0.0450   14.1710   34.6260 O.2    12  ASN12      -0.2864
     13  CB         1.7460   15.8540   36.6530 C.3    12  ASN12       0.1181
     14  CG         2.6860   16.7910   35.9230 C.2    12  ASN12       0.2629
     15  OD1        2.4940   18.0140   35.9080 O.2    12  ASN12      -0.2716
     16  ND2        3.7110   16.2250   35.3100 N.am   12  ASN12      -0.0877
     17  N          2.0190   14.2130   32.4080 N.3    14  ASP14      -0.1225
     18  CA         2.6980   13.0380   31.8930 C.3    14  ASP14       0.1805
     19  C          2.2730   11.7510   32.6000 C.2    14  ASP14       0.2597
     20  O          2.9250   10.7110   32.4780 O.2    14  ASP14      -0.2718
     21  CB         4.2120   13.2290   31.9510 C.3    14  ASP14       0.1424
     22  CG         4.7280   13.3680   33.3560 C.2    14  ASP14       0.3668
     23  OD1        3.9230   13.6190   34.2720 O.co2  14  ASP14      -0.2456
     24  OD2        5.9520   13.2230   33.5320 O.co2  14  ASP14      -0.2456
     25  N          1.1540   11.8350   33.3180 N.am   15  LYS15      -0.1979
     26  CA         0.5820   10.7020   34.0320 C.3    15  LYS15       0.1596
     27  C         -0.7170   10.2880   33.3310 C.2    15  LYS15       0.2287
     28  O         -1.2200   11.0140   32.4740 O.2    15  LYS15      -0.2864
     29  CB         0.3200   11.0860   35.4870 C.3    15  LYS15       0.0298
     30  CG         1.5950   11.3870   36.2880 C.3    15  LYS15       0.0038
     31  CD         2.7630   10.4650   35.9190 C.3    15  LYS15       0.0206
     32  CE         2.9290    9.3160   36.9230 C.3    15  LYS15       0.1093
     33  NZ         2.7700    7.9400   36.3250 N.3    15  LYS15      -0.1314
     34  N          2.0440   23.4240   35.8050 N.3    42  LYS42      -0.1245
     35  CA         2.6540   23.7130   37.1000 C.3    42  LYS42       0.1561
     36  C          1.6190   23.6040   38.2250 C.2    42  LYS42       0.2260
     37  O          1.3930   24.5560   38.9690 O.2    42  LYS42      -0.2867
     38  CB         3.2550   25.1220   37.0750 C.3    42  LYS42       0.0271
     39  CG         4.6290   25.2180   36.4070 C.3    42  LYS42       0.0035
     40  CD         4.5250   25.4320   34.8980 C.3    42  LYS42       0.0206
     41  CE         5.8770   25.2010   34.2070 C.3    42  LYS42       0.1093
     42  NZ         5.9760   25.8190   32.8430 N.3    42  LYS42      -0.1314
     43  N          1.8690   21.8570   40.8150 N.3    44  GLU44      -0.1231
     44  CA         2.5720   21.7630   42.0930 C.3    44  GLU44       0.1699
     45  C          2.8640   23.1500   42.6380 C.2    44  GLU44       0.2592
     46  O          2.9370   23.3480   43.8450 O.2    44  GLU44      -0.2718
     47  CB         3.8710   20.9540   41.9310 C.3    44  GLU44       0.0402
     48  CG         5.0330   21.7190   41.3020 C.3    44  GLU44       0.1161
     49  CD         5.0110   21.7130   39.7810 C.2    44  GLU44       0.3649
     50  OE1        3.9500   21.4510   39.1860 O.co2  44  GLU44      -0.2457
     51  OE2        6.0630   21.9750   39.1740 O.co2  44  GLU44      -0.2457
     52  N          3.0140   24.1080   41.7360 N.am   45  GLU45      -0.1979
     53  CA         3.2840   25.4830   42.1140 C.3    45  GLU45       0.1602
     54  C          1.9940   26.2820   42.3670 C.2    45  GLU45       0.2287
     55  O          2.0010   27.2410   43.1380 O.2    45  GLU45      -0.2864
     56  CB         4.0990   26.1600   41.0170 C.3    45  GLU45       0.0415
     57  CG         5.5430   26.4090   41.3750 C.3    45  GLU45       0.1163
     58  CD         6.4610   26.1810   40.2020 C.2    45  GLU45       0.3649
     59  OE1        5.9470   26.1150   39.0690 O.co2  45  GLU45      -0.2457
     60  OE2        7.6910   26.0670   40.4100 O.co2  45  GLU45      -0.2457
     61  N         -2.4620   14.9910   43.2380 N.3    61  PHE61      -0.1227
     62  CA        -1.5070   13.9100   43.1010 C.3    61  PHE61       0.1736
     63  C         -0.2130   14.5820   42.7290 C.2    61  PHE61       0.2595
     64  O         -0.2070   15.5700   41.9780 O.2    61  PHE61      -0.2718
     65  CB        -1.8440   12.9770   41.9460 C.3    61  PHE61       0.0547
     66  CG        -3.0440   12.1340   42.1650 C.ar   61  PHE61      -0.0202
     67  CD1       -4.3190   12.6900   42.1140 C.ar   61  PHE61      -0.0042
     68  CD2       -2.9080   10.7800   42.4050 C.ar   61  PHE61      -0.0042
     69  CE1       -5.4390   11.9080   42.2990 C.ar   61  PHE61      -0.0003
     70  CE2       -4.0230    9.9860   42.5930 C.ar   61  PHE61      -0.0003
     71  CZ        -5.2960   10.5520   42.5400 C.ar   61  PHE61      -0.0000
     72  N          0.8810   14.0210   43.2300 N.am   62  TRP62      -0.1962
     73  CA         2.2200   14.5210   42.9540 C.3    62  TRP62       0.1771
     74  C          3.1450   13.6310   43.7420 C.2    62  TRP62       0.2619
     75  O          2.6830   12.9620   44.6600 O.2    62  TRP62      -0.2715
     76  CB         2.3820   15.9630   43.4200 C.3    62  TRP62       0.0590
     77  CG         3.7120   16.5190   43.0300 C.ar   62  TRP62       0.0006
     78  CD1        4.8900   16.4260   43.7280 C.ar   62  TRP62       0.0946
     79  CD2        4.0170   17.2270   41.8250 C.ar   62  TRP62       0.0152
     80  NE1        5.9060   17.0300   43.0300 N.ar   62  TRP62      -0.2442
     81  CE2        5.4020   17.5280   41.8590 C.ar   62  TRP62       0.0810
     82  CE3        3.2570   17.6320   40.7180 C.ar   62  TRP62       0.0012
     83  CZ2        6.0380   18.2170   40.8350 C.ar   62  TRP62       0.0191
     84  CZ3        3.8880   18.3210   39.6930 C.ar   62  TRP62       0.0001
     85  CH2        5.2700   18.6060   39.7600 C.ar   62  TRP62       0.0015
     86  N          4.4310   13.6070   43.3820 N.am   63  ALA63      -0.1977
     87  CA         5.4110   12.7940   44.0970 C.3    63  ALA63       0.1597
     88  C          5.5410   13.3360   45.5230 C.2    63  ALA63       0.2287
     89  O          5.5440   14.5490   45.7560 O.2    63  ALA63      -0.2864
     90  CB         6.7660   12.8290   43.3840 C.3    63  ALA63       0.0319
     91  N          7.7450   14.1610   47.5320 N.3    65  ASP65      -0.1225
     92  CA         8.7140   15.1820   47.9390 C.3    65  ASP65       0.1805
     93  C          8.1350   16.5690   48.2550 C.2    65  ASP65       0.2597
     94  O          8.6960   17.3190   49.0750 O.2    65  ASP65      -0.2718
     95  CB         9.8320   15.3170   46.8930 C.3    65  ASP65       0.1424
     96  CG         9.3170   15.7580   45.5300 C.2    65  ASP65       0.3668
     97  OD1        8.4360   15.0620   44.9760 O.co2  65  ASP65      -0.2456
     98  OD2        9.7960   16.7960   45.0160 O.co2  65  ASP65      -0.2456
     99  N          7.0130   16.9130   47.6270 N.am   66  ARG66      -0.1979
    100  CA         6.4250   18.2240   47.8490 C.3    66  ARG66       0.1597
    101  C          5.4130   18.2360   48.9790 C.2    66  ARG66       0.2287
    102  O          5.0150   19.2980   49.4480 O.2    66  ARG66      -0.2864
    103  CB         5.7550   18.7210   46.5660 C.3    66  ARG66       0.0334
    104  CG         6.6290   19.5820   45.6640 C.3    66  ARG66       0.0492
    105  CD         6.0870   21.0020   45.5880 C.3    66  ARG66       0.2205
    106  NE         6.8950   21.8720   44.7360 N.pl3  66  ARG66      -0.0865
    107  CZ         6.8720   23.2030   44.7860 C.cat  66  ARG66       0.5346
    108  NH1        6.0880   23.8300   45.6500 N.pl3  66  ARG66       0.1354
    109  NH2        7.6380   23.9110   43.9740 N.pl3  66  ARG66       0.1354
    110  N          8.1610    5.4380   41.7880 N.3   111  GLU111     -0.1245
    111  CA         8.8070    5.7100   40.5170 C.3   111  GLU111      0.1567
    112  C         10.3020    6.0230   40.6050 C.2   111  GLU111      0.2260
    113  O         10.7400    6.7070   41.5320 O.2   111  GLU111     -0.2867
    114  CB         8.0710    6.8670   39.8330 C.3   111  GLU111      0.0388
    115  CG         6.5930    6.9760   40.2010 C.3   111  GLU111      0.1160
    116  CD         6.0330    8.3390   39.8730 C.2   111  GLU111      0.3649
    117  OE1        6.6640    9.3440   40.2510 O.co2 111  GLU111     -0.2457
    118  OE2        4.9700    8.4140   39.2300 O.co2 111  GLU111     -0.2457
    119  N         16.0550   14.6150   29.2810 N.3   150  ASN150     -0.1240
    120  CA        15.7200   15.9440   29.7760 C.3   150  ASN150      0.1653
    121  C         16.7830   16.5880   30.6740 C.2   150  ASN150      0.2266
    122  O         16.9290   16.2110   31.8420 O.2   150  ASN150     -0.2867
    123  CB        14.3960   15.8780   30.5290 C.3   150  ASN150      0.1155
    124  CG        13.9100   17.2290   30.9500 C.2   150  ASN150      0.2627
    125  OD1       14.5480   18.2430   30.6670 O.2   150  ASN150     -0.2716
    126  ND2       12.7680   17.2630   31.6350 N.am  150  ASN150     -0.0877
    127  N         15.3340   19.5850   33.7210 N.3   153  GLU153     -0.1231
    128  CA        14.8770   19.2420   35.0650 C.3   153  GLU153      0.1684
    129  C         15.9610   18.4340   35.7540 C.2   153  GLU153      0.2434
    130  O         16.3050   17.3410   35.2920 O.2   153  GLU153     -0.2733
    131  CB        13.5990   18.4280   34.9830 C.3   153  GLU153      0.0402
    132  CG        12.3940   19.2730   34.6520 C.3   153  GLU153      0.1161
    133  CD        11.9620   20.1190   35.8200 C.2   153  GLU153      0.3649
    134  OE1       12.3490   19.7920   36.9620 O.co2 153  GLU153     -0.2457
    135  OE2       11.2300   21.1110   35.6080 O.co2 153  GLU153     -0.2457
    136  N         16.4870   18.9470   36.8920 N.am  154  PRO154     -0.2718
    137  CA        17.5500   18.3260   37.6900 C.3   154  PRO154      0.1535
    138  C         17.3300   16.8470   37.9620 C.2   154  PRO154      0.2599
    139  O         18.2770   16.0630   37.9980 O.2   154  PRO154     -0.2715
    140  CB        17.5820   19.1650   38.9760 C.3   154  PRO154      0.0310
    141  CG        16.3110   19.9490   38.9750 C.3   154  PRO154      0.0237
    142  CD        16.0020   20.1840   37.5310 C.3   154  PRO154      0.0939
    143  N         16.0680   16.4840   38.1490 N.am  155  TYR155     -0.1960
    144  CA        15.6500   15.1100   38.4050 C.3   155  TYR155      0.1771
    145  C         16.3730   14.0840   37.5180 C.2   155  TYR155      0.2619
    146  O         16.7370   13.0020   37.9740 O.2   155  TYR155     -0.2715
    147  CB        14.1350   15.0270   38.1810 C.3   155  TYR155      0.0574
    148  CG        13.4970   13.6790   38.4040 C.ar  155  TYR155     -0.0198
    149  CD1       13.2450   13.1960   39.6910 C.ar  155  TYR155     -0.0009
    150  CD2       13.0980   12.9000   37.3190 C.ar  155  TYR155     -0.0009
    151  CE1       12.6040   11.9550   39.8820 C.ar  155  TYR155      0.0417
    152  CE2       12.4620   11.6720   37.4930 C.ar  155  TYR155      0.0417
    153  CZ        12.2130   11.1970   38.7670 C.ar  155  TYR155      0.1957
    154  OH        11.5660    9.9750   38.9120 O.3   155  TYR155     -0.2866
    155  N         16.6000   14.4420   36.2570 N.am  156  PHE156     -0.1974
    156  CA        17.2310   13.5420   35.2980 C.3   156  PHE156      0.1639
    157  C         18.7500   13.4650   35.3790 C.2   156  PHE156      0.2290
    158  O         19.3590   12.5530   34.8180 O.2   156  PHE156     -0.2864
    159  CB        16.7930   13.9230   33.8790 C.3   156  PHE156      0.0560
    160  CG        15.3100   13.7740   33.6430 C.ar  156  PHE156     -0.0200
    161  CD1       14.7690   12.5430   33.2720 C.ar  156  PHE156     -0.0042
    162  CD2       14.4490   14.8540   33.8200 C.ar  156  PHE156     -0.0042
    163  CE1       13.3840   12.3880   33.0810 C.ar  156  PHE156     -0.0003
    164  CE2       13.0690   14.7110   33.6320 C.ar  156  PHE156     -0.0003
    165  CZ        12.5380   13.4760   33.2630 C.ar  156  PHE156     -0.0000
    166  N         12.4450   17.4310   27.7570 N.3   210  TYR210     -0.1241
    167  CA        11.5760   16.2520   27.6560 C.3   210  TYR210      0.1605
    168  C         11.0760   15.9820   26.2440 C.2   210  TYR210      0.2264
    169  O         11.2530   14.8880   25.7080 O.2   210  TYR210     -0.2867
    170  CB        10.3700   16.3820   28.5930 C.3   210  TYR210      0.0534
    171  CG         9.7620   15.0470   28.9870 C.ar  210  TYR210     -0.0201
    172  CD1        8.8120   14.4240   28.1810 C.ar  210  TYR210     -0.0009
    173  CD2       10.1440   14.4000   30.1650 C.ar  210  TYR210     -0.0009
    174  CE1        8.2620   13.1980   28.5370 C.ar  210  TYR210      0.0417
    175  CE2        9.5970   13.1790   30.5200 C.ar  210  TYR210      0.0417
    176  CZ         8.6600   12.5890   29.7050 C.ar  210  TYR210      0.1957
    177  OH         8.0990   11.3910   30.0720 O.3   210  TYR210     -0.2866
    178  N          6.1640    6.2260   33.0970 N.3   230  TRP230     -0.1241
    179  CA         5.0970    6.9710   32.4320 C.3   230  TRP230      0.1605
    180  C          5.3780    7.1980   30.9480 C.2   230  TRP230      0.2264
    181  O          4.4600    7.3810   30.1490 O.2   230  TRP230     -0.2867
    182  CB         4.9110    8.3230   33.1180 C.3   230  TRP230      0.0550
    183  CG         6.1890    9.0710   33.2280 C.ar  230  TRP230      0.0003
    184  CD1        6.7990    9.8070   32.2490 C.ar  230  TRP230      0.0946
    185  CD2        7.0520    9.1200   34.3640 C.ar  230  TRP230      0.0152
    186  NE1        7.9930   10.3100   32.7050 N.ar  230  TRP230     -0.2442
    187  CE2        8.1740    9.9050   34.0030 C.ar  230  TRP230      0.0810
    188  CE3        6.9920    8.5820   35.6550 C.ar  230  TRP230      0.0012
    189  CZ2        9.2290   10.1620   34.8910 C.ar  230  TRP230      0.0191
    190  CZ3        8.0440    8.8390   36.5380 C.ar  230  TRP230      0.0001
    191  CH2        9.1430    9.6200   36.1490 C.ar  230  TRP230      0.0015
    192  N         10.6940    8.5970   44.0300 N.3   260  GLY260     -0.1225
    193  CA         9.4890    9.2690   44.4640 C.3   260  GLY260      0.1811
    194  C          8.2950    8.3400   44.4690 C.2   260  GLY260      0.2280
    195  O          8.2120    7.4280   43.6490 O.2   260  GLY260     -0.2866
    196  N          4.3230    8.4090   44.0650 N.3   262  LEU262     -0.1245
    197  CA         3.2160    9.2490   43.6130 C.3   262  LEU262      0.1561
    198  C          2.1330    9.1590   44.6790 C.2   262  LEU262      0.2260
    199  O          1.5610    8.0900   44.9030 O.2   262  LEU262     -0.2867
    200  CB         2.6890    8.7460   42.2780 C.3   262  LEU262      0.0270
    201  CG         1.3060    9.1850   41.7990 C.3   262  LEU262      0.0019
    202  CD1        1.3250   10.6090   41.3460 C.3   262  LEU262      0.0001
    203  CD2        0.8940    8.2970   40.6310 C.3   262  LEU262      0.0001
    204  N         13.3850   10.2330   48.1860 N.3   330  MET330     -0.1245
    205  CA        13.5590   11.6250   48.5710 C.3   330  MET330      0.1570
    206  C         12.7850   12.0050   49.8160 C.2   330  MET330      0.2261
    207  O         11.7970   11.3720   50.1600 O.2   330  MET330     -0.2867
    208  CB        13.1570   12.5780   47.4430 C.3   330  MET330      0.0387
    209  CG        12.8080   11.9450   46.1460 C.3   330  MET330      0.0595
    210  SD        11.9230   13.1420   45.1240 S.3   330  MET330     -0.1393
    211  CE        13.2510   13.9160   44.4330 C.3   330  MET330      0.0692
    212  N         11.9480   21.8270   48.0140 N.3   337  SER337     -0.1217
    213  CA        11.6330   22.7970   46.9620 C.3   337  SER337      0.1889
    214  C         12.8370   23.7010   46.7250 C.2   337  SER337      0.2288
    215  O         13.1360   24.0700   45.5840 O.2   337  SER337     -0.2866
    216  CB        10.4010   23.6500   47.3350 C.3   337  SER337      0.2089
    217  OG        10.1050   23.6160   48.7250 O.3   337  SER337     -0.2183
    218  N         15.5910   21.3470   45.1350 N.3   340  TRP340     -0.1227
    219  CA        15.2760   21.1710   43.7250 C.3   340  TRP340      0.1737
    220  C         15.5050   22.4210   42.8910 C.2   340  TRP340      0.2595
    221  O         16.0610   22.3360   41.8000 O.2   340  TRP340     -0.2718
    222  CB        13.8290   20.6960   43.5750 C.3   340  TRP340      0.0564
    223  CG        13.6940   19.2130   43.5570 C.ar  340  TRP340      0.0003
    224  CD1       12.7080   18.4670   44.1410 C.ar  340  TRP340      0.0946
    225  CD2       14.5990   18.2780   42.9540 C.ar  340  TRP340      0.0152
    226  NE1       12.9470   17.1260   43.9430 N.ar  340  TRP340     -0.2442
    227  CE2       14.1030   16.9840   43.2180 C.ar  340  TRP340      0.0810
    228  CE3       15.7820   18.4080   42.2190 C.ar  340  TRP340      0.0012
    229  CZ2       14.7500   15.8290   42.7710 C.ar  340  TRP340      0.0191
    230  CZ3       16.4280   17.2580   41.7790 C.ar  340  TRP340      0.0001
    231  CH2       15.9080   15.9860   42.0580 C.ar  340  TRP340      0.0015
    232  N         15.0690   23.5750   43.3950 N.am  341  TYR341     -0.1976
    233  CA        15.2310   24.8500   42.6830 C.3   341  TYR341      0.1639
    234  C         16.7060   25.1850   42.4420 C.2   341  TYR341      0.2290
    235  O         17.1300   25.3880   41.3030 O.2   341  TYR341     -0.2864
    236  CB        14.6210   26.0000   43.4890 C.3   341  TYR341      0.0560
    237  CG        13.1180   26.1480   43.4170 C.ar  341  TYR341     -0.0198
    238  CD1       12.3880   25.6700   42.3290 C.ar  341  TYR341     -0.0009
    239  CD2       12.4230   26.7900   44.4480 C.ar  341  TYR341     -0.0009
    240  CE1       10.9970   25.8280   42.2740 C.ar  341  TYR341      0.0417
    241  CE2       11.0420   26.9520   44.4020 C.ar  341  TYR341      0.0417
    242  CZ        10.3350   26.4720   43.3160 C.ar  341  TYR341      0.1957
    243  OH         8.9710   26.6480   43.2760 O.3   341  TYR341     -0.2866
    244  N         18.3560   22.9980   39.8850 N.3   344  ARG344     -0.1245
    245  CA        17.9120   23.1330   38.5000 C.3   344  ARG344      0.1563
    246  C         18.8450   24.1120   37.8100 C.2   344  ARG344      0.2260
    247  O         19.3430   23.8430   36.7200 O.2   344  ARG344     -0.2867
    248  CB        16.4740   23.6550   38.4470 C.3   344  ARG344      0.0307
    249  CG        15.7250   23.3900   37.1420 C.3   344  ARG344      0.0489
    250  CD        14.6170   24.4220   36.9470 C.3   344  ARG344      0.2205
    251  NE        14.6210   25.3700   38.0580 N.pl3 344  ARG344     -0.0865
    252  CZ        13.7420   26.3480   38.2330 C.cat 344  ARG344      0.5346
    253  NH1       12.7560   26.5340   37.3630 N.pl3 344  ARG344      0.1354
    254  NH2       13.8460   27.1350   39.2950 N.pl3 344  ARG344      0.1354
@<TRIPOS>BOND
     1   169   168    2
     2   168   167    1
     3   167   166    1
     4   167   170    1
     5   172   174   ar
     6   172   171   ar
     7   174   176   ar
     8   170   171    1
     9   171   173   ar
    10   119   120    1
    11   176   177    1
    12   176   175   ar
    13   120   123    1
    14   120   121    1
    15   181   180    2
    16   173   175   ar
    17   123   124    1
    18   125   124    2
    19   121   122    2
    20   180   179    1
    21   124   126   am
    22    18    21    1
    23    18    17    1
    24    18    19    1
    25    21    22    1
    26   184   186   ar
    27   184   183   ar
    28   179   178    1
    29   179   182    1
    30    28    27    2
    31    20    19    2
    32    19    25   am
    33   186   187   ar
    34    42    41    1
    35   163   165   ar
    36   163   161   ar
    37   182   183    1
    38   183   185   ar
    39   165   164   ar
    40   161   160   ar
    41    25    26    1
    42    27    26    1
    43    22    24   ar
    44    22    23   ar
    45   164   162   ar
    46   160   162   ar
    47   160   159    1
    48   127   128    1
    49   159   156    1
    50   187   185   ar
    51   187   189   ar
    52    26    29    1
    53    41    40    1
    54   185   188   ar
    55    12    11    2
    56   132   131    1
    57   132   133    1
    58    11    10    1
    59   158   157    2
    60   189   191   ar
    61    40    39    1
    62   131   128    1
    63   128   129    1
    64   130   129    2
    65   156   157    1
    66   156   155    1
    67    16    14   am
    68    29    30    1
    69   135   133   ar
    70   188   190   ar
    71   129   136   am
    72    34    35    1
    73   133   134   ar
    74    15    14    2
    75    31    30    1
    76    31    32    1
    77    14    13    1
    78   191   190   ar
    79    10    13    1
    80    10     9    1
    81   155   145   am
    82    33    32    1
    83     4     3    2
    84    39    38    1
    85     7     5    1
    86   247   246    2
    87   136   142    1
    88   136   137    1
    89   250   249    1
    90   250   251    1
    91    38    35    1
    92    35    36    1
    93   249   248    1
    94     9     3   am
    95     3     2    1
    96   150   152   ar
    97   150   148   ar
    98   253   252    1
    99   152   153   ar
   100   145   146    2
   101   145   144    1
   102   142   141    1
   103   137   138    1
   104   137   140    1
   105   246   245    1
   106     5     6    1
   107     5     2    1
   108   138   139    2
   109   138   143   am
   110     6     8    1
   111   251   252    2
   112   143   144    1
   113   147   148    1
   114   147   144    1
   115    36    37    2
   116   252   254    1
   117     2     1    1
   118   148   149   ar
   119   248   245    1
   120   245   244    1
   121   153   154    1
   122   153   151   ar
   123   141   140    1
   124    59    58   ar
   125    51    49   ar
   126    50    49   ar
   127   118   116   ar
   128   149   151   ar
   129    84    85   ar
   130    84    82   ar
   131    85    83   ar
   132    49    48    1
   133   114   115    1
   134   114   111    1
   135   116   115    1
   136   116   117   ar
   137    58    60   ar
   138    58    57    1
   139   111   112    1
   140   111   110    1
   141   112   113    2
   142   203   201    1
   143    82    79   ar
   144    43    44    1
   145    83    81   ar
   146    56    57    1
   147    56    53    1
   148    48    47    1
   149   235   234    2
   150   202   201    1
   151    52    53    1
   152    52    45   am
   153   230   231   ar
   154   230   228   ar
   155   201   200    1
   156   221   220    2
   157    79    81   ar
   158    79    77   ar
   159    81    80   ar
   160    47    44    1
   161    65    66    1
   162    65    62    1
   163    64    63    2
   164   231   229   ar
   165    44    45    1
   166    53    54    1
   167    67    66   ar
   168    67    69   ar
   169    66    68   ar
   170   228   225   ar
   171   240   238   ar
   172   240   242   ar
   173   200   197    1
   174    69    71   ar
   175   238   237   ar
   176    54    55    2
   177    68    70   ar
   178   234   233    1
   179    71    70   ar
   180    45    46    2
   181   233   232    1
   182   233   236    1
   183    63    62    1
   184    63    72   am
   185   229   227   ar
   186   220   232   am
   187   220   219    1
   188    73    72    1
   189    73    76    1
   190    73    74    1
   191   225   227   ar
   192   225   223   ar
   193    77    76    1
   194    77    78   ar
   195    80    78   ar
   196    62    61    1
   197   227   226   ar
   198   243   242    1
   199   242   241   ar
   200    86    74   am
   201    86    87    1
   202    90    87    1
   203   237   236    1
   204   237   239   ar
   205   223   222    1
   206   223   224   ar
   207   222   219    1
   208   197   196    1
   209   197   198    1
   210   195   194    2
   211   219   218    1
   212    74    75    2
   213   226   224   ar
   214   109   107    1
   215   192   193    1
   216    87    88    1
   217   241   239   ar
   218   211   210    1
   219   193   194    1
   220   198   199    2
   221   106   107    2
   222   106   105    1
   223   107   108    1
   224    97    96   ar
   225    98    96   ar
   226   210   209    1
   227    88    89    2
   228    96    95    1
   229   215   214    2
   230   105   104    1
   231   104   103    1
   232   209   208    1
   233   103   100    1
   234   214   213    1
   235    95    92    1
   236   213   216    1
   237   213   212    1
   238   216   217    1
   239   208   205    1
   240    91    92    1
   241    99   100    1
   242    99    93   am
   243   100   101    1
   244    92    93    1
   245   204   205    1
   246    93    94    2
   247   205   206    1
   248   101   102    2
   249   206   207    2
