@<TRIPOS>MOLECULE
tmp/1fqgA00.pdb
 119 111 0 0 0
SMALL
GASTEIGER

@<TRIPOS>ATOM
      1  N         35.6770   34.9000   30.9490 N.3    45  SER45      -0.1217
      2  CA        35.8160   35.5170   29.6370 C.3    45  SER45       0.1889
      3  C         35.0480   34.8380   28.4970 C.2    45  SER45       0.2288
      4  O         34.9430   35.3910   27.4080 O.2    45  SER45      -0.2866
      5  CB        37.2750   35.7710   29.2550 C.3    45  SER45       0.2089
      6  OG        37.9300   36.5940   30.2160 O.3    45  SER45      -0.2183
      7  N         42.1490   45.5120   34.7990 N.3    79  GLU79      -0.1231
      8  CA        43.2410   44.5670   34.7010 C.3    79  GLU79       0.1699
      9  C         43.1680   43.7740   33.4190 C.2    79  GLU79       0.2592
     10  O         42.0980   43.3330   32.9990 O.2    79  GLU79      -0.2718
     11  CB        43.2800   43.6030   35.8890 C.3    79  GLU79       0.0402
     12  CG        43.7240   44.2990   37.1870 C.3    79  GLU79       0.1161
     13  CD        44.9710   43.6460   37.7340 C.2    79  GLU79       0.3649
     14  OE1       45.0130   42.6680   38.4640 O.co2  79  GLU79      -0.2457
     15  OE2       46.0450   44.2920   37.3210 O.co2  79  GLU79      -0.2457
     16  N         44.3280   43.5970   32.8190 N.am   80  TYR80      -0.1976
     17  CA        44.4500   42.8070   31.6220 C.3    80  TYR80       0.1639
     18  C         43.7230   43.3670   30.3970 C.2    80  TYR80       0.2290
     19  O         42.6880   42.8510   29.9590 O.2    80  TYR80      -0.2864
     20  CB        44.0860   41.3380   31.8940 C.3    80  TYR80       0.0560
     21  CG        44.5020   40.5510   30.7080 C.ar   80  TYR80      -0.0198
     22  CD1       45.8520   40.3350   30.4360 C.ar   80  TYR80      -0.0009
     23  CD2       43.5320   40.1170   29.8030 C.ar   80  TYR80      -0.0009
     24  CE1       46.2190   39.6640   29.2680 C.ar   80  TYR80       0.0417
     25  CE2       43.8850   39.4430   28.6370 C.ar   80  TYR80       0.0417
     26  CZ        45.2380   39.2160   28.3810 C.ar   80  TYR80       0.1957
     27  OH        45.6370   38.5440   27.2460 O.3    80  TYR80      -0.2866
     28  N         41.1640   38.5300   24.6260 N.3   105  SER105     -0.1217
     29  CA        40.5110   38.5420   25.9150 C.3   105  SER105      0.1889
     30  C         40.7530   39.8520   26.6590 C.2   105  SER105      0.2288
     31  O         40.8940   39.8810   27.8770 O.2   105  SER105     -0.2866
     32  CB        40.8280   37.3460   26.7940 C.3   105  SER105      0.2089
     33  OG        39.6360   36.9950   27.4770 O.3   105  SER105     -0.2183
     34  N         39.9290   42.7600   28.6510 N.3   107  ASN107     -0.1240
     35  CA        38.8610   42.9820   29.6110 C.3   107  ASN107      0.1653
     36  C         38.1750   44.3250   29.4660 C.2   107  ASN107      0.2266
     37  O         36.9710   44.4640   29.7000 O.2   107  ASN107     -0.2867
     38  CB        39.3500   42.7540   31.0450 C.3   107  ASN107      0.1155
     39  CG        39.4870   41.2770   31.3470 C.2   107  ASN107      0.2627
     40  OD1       38.7330   40.4650   30.8020 O.2   107  ASN107     -0.2716
     41  ND2       40.4470   40.9160   32.1920 N.am  107  ASN107     -0.0877
     42  N         36.2690   43.5660   36.5820 N.3   142  PRO142     -0.2116
     43  CA        36.7140   42.2040   36.8120 C.3   142  PRO142      0.1372
     44  C         35.8200   41.3680   37.7200 C.2   142  PRO142      0.2244
     45  O         36.0380   40.1620   37.8490 O.2   142  PRO142     -0.2868
     46  CB        38.0610   42.3630   37.5180 C.3   142  PRO142      0.0268
     47  CG        38.0510   43.7500   38.1410 C.3   142  PRO142      0.0207
     48  CD        37.0250   44.5570   37.3790 C.3   142  PRO142      0.0892
     49  N         34.5030   37.6420   37.4060 N.3   145  ASN145     -0.1240
     50  CA        35.3820   36.4990   37.5400 C.3   145  ASN145      0.1653
     51  C         35.5650   35.9960   38.9790 C.2   145  ASN145      0.2266
     52  O         36.4020   35.1240   39.2300 O.2   145  ASN145     -0.2867
     53  CB        36.7490   36.8330   36.9330 C.3   145  ASN145      0.1155
     54  CG        36.6990   36.9480   35.4230 C.2   145  ASN145      0.2627
     55  OD1       36.1250   36.0900   34.7420 O.2   145  ASN145     -0.2716
     56  ND2       37.3160   37.9960   34.8890 N.am  145  ASN145     -0.0877
     57  N         45.0840   33.6490   22.7120 N.3   191  VAL191     -0.1245
     58  CA        45.5290   33.3460   24.0610 C.3   191  VAL191      0.1561
     59  C         45.1360   31.9710   24.5450 C.2   191  VAL191      0.2260
     60  O         45.3300   31.6480   25.7110 O.2   191  VAL191     -0.2867
     61  CB        44.9630   34.3680   25.0390 C.3   191  VAL191      0.0252
     62  CG1       45.4980   35.7610   24.7130 C.3   191  VAL191      0.0019
     63  CG2       43.4430   34.3400   24.9550 C.3   191  VAL191      0.0019
     64  N         37.1820   30.2050   22.6220 N.3   209  LYS209     -0.1231
     65  CA        37.2560   31.2920   23.5810 C.3   209  LYS209      0.1693
     66  C         37.5020   30.6970   24.9570 C.2   209  LYS209      0.2593
     67  O         36.7220   29.8950   25.4620 O.2   209  LYS209     -0.2718
     68  CB        36.0130   32.1780   23.6180 C.3   209  LYS209      0.0285
     69  CG        36.1390   33.3050   24.6360 C.3   209  LYS209      0.0035
     70  CD        37.0520   34.4100   24.1160 C.3   209  LYS209      0.0206
     71  CE        37.5040   35.4050   25.1750 C.3   209  LYS209      0.1093
     72  NZ        38.6290   34.9060   25.9790 N.3   209  LYS209     -0.1314
     73  N         38.6080   31.1100   25.5450 N.am  210  SER210     -0.1938
     74  CA        39.0100   30.6410   26.8420 C.3   210  SER210      0.2055
     75  C         38.6320   31.6390   27.9150 C.2   210  SER210      0.2644
     76  O         38.1440   32.7430   27.6580 O.2   210  SER210     -0.2714
     77  CB        40.5110   30.4380   26.8630 C.3   210  SER210      0.2130
     78  OG        41.1470   31.6370   26.4730 O.3   210  SER210     -0.2179
     79  N         38.8790   31.2350   29.1340 N.am  211  GLY211     -0.1939
     80  CA        38.5950   32.0990   30.2410 C.3   211  GLY211      0.2014
     81  C         39.2280   31.5480   31.4880 C.2   211  GLY211      0.2639
     82  O         39.4690   30.3490   31.6060 O.2   211  GLY211     -0.2714
     83  N         39.5100   32.4460   32.4110 N.am  212  ALA212     -0.1963
     84  CA        40.0660   32.0720   33.6870 C.3   212  ALA212      0.1728
     85  C         39.5110   33.0320   34.7130 C.2   212  ALA212      0.2617
     86  O         39.1600   34.1720   34.3980 O.2   212  ALA212     -0.2715
     87  CB        41.5830   32.1140   33.6730 C.3   212  ALA212      0.0334
     88  N         39.3990   32.5630   35.9330 N.am  213  GLY213     -0.1940
     89  CA        38.8740   33.4320   36.9570 C.3   213  GLY213      0.2014
     90  C         39.4520   33.0660   38.3090 C.2   213  GLY213      0.2638
     91  O         40.4070   32.2990   38.4190 O.2   213  GLY213     -0.2714
     92  N         38.8460   33.6000   39.3520 N.am  214  GLU214     -0.1977
     93  CA        39.3190   33.2830   40.6790 C.3   214  GLU214      0.1602
     94  C         38.9050   31.8820   41.0930 C.2   214  GLU214      0.2287
     95  O         38.0670   31.2460   40.4600 O.2   214  GLU214     -0.2864
     96  CB        38.8730   34.3550   41.6890 C.3   214  GLU214      0.0415
     97  CG        39.7010   35.6440   41.4720 C.3   214  GLU214      0.1163
     98  CD        39.2020   36.8180   42.2620 C.2   214  GLU214      0.3649
     99  OE1       38.2310   36.7610   42.9990 O.co2 214  GLU214     -0.2457
    100  OE2       39.8880   37.9070   42.0090 O.co2 214  GLU214     -0.2457
    101  N         38.5510   28.0140   35.2380 N.3   218  ARG218     -0.1245
    102  CA        39.1570   27.9160   33.9280 C.3   218  ARG218      0.1563
    103  C         38.1180   27.3200   33.0110 C.2   218  ARG218      0.2260
    104  O         37.3170   26.5070   33.4540 O.2   218  ARG218     -0.2867
    105  CB        40.3840   27.0100   33.9400 C.3   218  ARG218      0.0307
    106  CG        41.2040   27.1250   32.6660 C.3   218  ARG218      0.0489
    107  CD        42.1360   28.3200   32.7590 C.3   218  ARG218      0.2205
    108  NE        43.2050   28.4030   31.7720 N.pl3 218  ARG218     -0.0865
    109  CZ        43.2280   29.2890   30.7840 C.cat 218  ARG218      0.5346
    110  NH1       42.2270   30.1340   30.5710 N.pl3 218  ARG218      0.1354
    111  NH2       44.2740   29.3120   29.9760 N.pl3 218  ARG218      0.1354
    112  N         47.7080   27.4270   37.2650 N.3   245  MET245     -0.1245
    113  CA        47.2380   27.6700   35.9230 C.3   245  MET245      0.1570
    114  C         47.7100   26.5940   34.9470 C.2   245  MET245      0.2261
    115  O         46.9190   26.0980   34.1580 O.2   245  MET245     -0.2867
    116  CB        47.6680   29.0520   35.4130 C.3   245  MET245      0.0387
    117  CG        47.0130   29.3860   34.0920 C.3   245  MET245      0.0595
    118  SD        45.2510   29.7590   34.2880 S.3   245  MET245     -0.1393
    119  CE        45.1320   31.2070   33.2110 C.3   245  MET245      0.0692
@<TRIPOS>BOND
     1    64    65    1
     2    57    58    1
     3    65    68    1
     4    65    66    1
     5    68    69    1
     6    58    59    1
     7    58    61    1
     8    70    69    1
     9    70    71    1
    10    59    60    2
    11    28    29    1
    12    62    61    1
    13    63    61    1
    14    66    67    2
    15    66    73   am
    16    71    72    1
    17    73    74    1
    18    29    30    1
    19    29    32    1
    20    78    77    1
    21    30    31    2
    22    32    33    1
    23    74    77    1
    24    74    75    1
    25    27    26    1
    26     4     3    2
    27    76    75    2
    28    75    79   am
    29    26    25   ar
    30    26    24   ar
    31     3     2    1
    32    25    23   ar
    33    34    35    1
    34    79    80    1
    35     5     2    1
    36     5     6    1
    37    24    22   ar
    38    36    35    1
    39    36    37    2
    40    35    38    1
    41     2     1    1
    42    23    21   ar
    43    19    18    2
    44   111   109    1
    45    80    81    1
    46    18    17    1
    47    22    21   ar
    48   110   109    1
    49    21    20    1
    50   109   108    2
    51    40    39    2
    52    38    39    1
    53    39    41   am
    54    81    82    2
    55    81    83   am
    56    17    20    1
    57    17    16    1
    58   108   107    1
    59    83    84    1
    60   106   107    1
    61   106   105    1
    62    16     9   am
    63    10     9    2
    64   103   104    2
    65   103   102    1
    66   119   118    1
    67     9     8    1
    68    87    84    1
    69    84    85    1
    70   102   105    1
    71   102   101    1
    72   117   118    1
    73   117   116    1
    74   115   114    2
    75    86    85    2
    76     8     7    1
    77     8    11    1
    78    85    88   am
    79    55    54    2
    80    56    54   am
    81   114   113    1
    82   116   113    1
    83    54    53    1
    84    11    12    1
    85   113   112    1
    86    88    89    1
    87    42    43    1
    88    42    48    1
    89    43    46    1
    90    43    44    1
    91    53    50    1
    92    89    90    1
    93    12    13    1
    94    15    13   ar
    95    48    47    1
    96    49    50    1
    97    46    47    1
    98    50    51    1
    99    44    45    2
   100    13    14   ar
   101    90    91    2
   102    90    92   am
   103    51    52    2
   104    92    93    1
   105    95    94    2
   106    93    94    1
   107    93    96    1
   108    97    96    1
   109    97    98    1
   110   100    98   ar
   111    98    99   ar
