@<TRIPOS>MOLECULE
tmp/1fqoA01.pdb
 151 147 0 0 0
SMALL
GASTEIGER

@<TRIPOS>ATOM
      1  N         22.4040  -10.8480   19.3730 N.3    40  PRO40      -0.2102
      2  CA        22.8320  -10.0010   20.4830 C.3    40  PRO40       0.1504
      3  C         24.2080  -10.4110   21.0300 C.2    40  PRO40       0.2576
      4  O         24.7590  -11.4540   20.6660 O.2    40  PRO40      -0.2718
      5  CB        21.7770  -10.3220   21.5270 C.3    40  PRO40       0.0282
      6  CG        21.7030  -11.8240   21.4140 C.3    40  PRO40       0.0208
      7  CD        21.7730  -12.0780   19.8990 C.3    40  PRO40       0.0893
      8  N         24.7520   -9.5730   21.9050 N.am   41  THR41      -0.1939
      9  CA        26.0070   -9.8700   22.5840 C.3    41  THR41       0.2028
     10  C         25.6380   -9.8890   24.0760 C.2    41  THR41       0.2643
     11  O         24.4540   -9.9210   24.4100 O.2    41  THR41      -0.2714
     12  CB        27.0990   -8.8190   22.3000 C.3    41  THR41       0.1808
     13  OG1       26.5990   -7.5110   22.6120 O.3    41  THR41      -0.2208
     14  CG2       27.5390   -8.8890   20.8340 C.3    41  THR41       0.0379
     15  N         26.6440   -9.8420   24.9490 N.am   42  GLY42      -0.1939
     16  CA        26.4180   -9.8690   26.3830 C.3    42  GLY42       0.2014
     17  C         26.6960  -11.2650   26.9000 C.2    42  GLY42       0.2639
     18  O         27.0510  -12.1520   26.1280 O.2    42  GLY42      -0.2714
     19  N         26.5190  -11.4710   28.1990 N.am   43  GLY43      -0.1939
     20  CA        26.7520  -12.7740   28.8000 C.3    43  GLY43       0.2014
     21  C         25.6610  -13.8060   28.5610 C.2    43  GLY43       0.2640
     22  O         25.9500  -14.9960   28.4410 O.2    43  GLY43      -0.2714
     23  N         24.4170  -13.3540   28.4610 N.am   44  THR44      -0.1937
     24  CA        23.2800  -14.2420   28.2470 C.3    44  THR44       0.2013
     25  C         23.3560  -15.2490   27.0990 C.2    44  THR44       0.2484
     26  O         23.1110  -16.4360   27.3020 O.2    44  THR44      -0.2729
     27  CB        21.9620  -13.4460   28.0710 C.3    44  THR44       0.1807
     28  OG1       21.7620  -12.5800   29.1950 O.3    44  THR44      -0.2208
     29  CG2       20.7740  -14.3880   27.9940 C.3    44  THR44       0.0379
     30  N         23.7360  -14.8100   25.8870 N.am   45  PRO45      -0.2726
     31  CA        23.7740  -15.8010   24.8000 C.3    45  PRO45       0.1402
     32  C         24.9580  -16.7450   24.7260 C.2    45  PRO45       0.2269
     33  O         25.0600  -17.5010   23.7600 O.2    45  PRO45      -0.2865
     34  CB        23.6850  -14.9280   23.5530 C.3    45  PRO45       0.0296
     35  CG        24.4980  -13.7380   23.9480 C.3    45  PRO45       0.0237
     36  CD        24.0950  -13.4650   25.3890 C.3    45  PRO45       0.0939
     37  N         22.2810   -6.3850   17.0530 N.3    71  MET71      -0.1230
     38  CA        21.4470   -5.3630   17.6710 C.3    71  MET71       0.1702
     39  C         22.0520   -3.9770   17.8720 C.2    71  MET71       0.2592
     40  O         21.3820   -2.9600   17.6760 O.2    71  MET71      -0.2718
     41  CB        20.9390   -5.8550   19.0190 C.3    71  MET71       0.0401
     42  CG        19.8500   -6.8730   18.9180 C.3    71  MET71       0.0596
     43  SD        19.1320   -7.1690   20.5220 S.3    71  MET71      -0.1393
     44  CE        20.5290   -7.1110   21.4290 C.3    71  MET71       0.0692
     45  N         23.3090   -3.9410   18.2830 N.am   72  ASP72      -0.1974
     46  CA        23.9540   -2.6800   18.5760 C.3    72  ASP72       0.1709
     47  C         25.4710   -2.7820   18.5930 C.2    72  ASP72       0.2293
     48  O         26.0410   -3.8410   18.3000 O.2    72  ASP72      -0.2864
     49  CB        23.4590   -2.1900   19.9410 C.3    72  ASP72       0.1436
     50  CG        23.2910   -3.3210   20.9450 C.2    72  ASP72       0.3671
     51  OD1       24.2390   -4.0980   21.1550 O.co2  72  ASP72      -0.2456
     52  OD2       22.1880   -3.4490   21.5090 O.co2  72  ASP72      -0.2456
     53  N         31.6320   -5.1110   20.1420 N.3    85  TYR85      -0.1241
     54  CA        30.7040   -6.1690   19.7580 C.3    85  TYR85       0.1605
     55  C         31.1380   -6.8810   18.4780 C.2    85  TYR85       0.2264
     56  O         30.7850   -8.0300   18.2300 O.2    85  TYR85      -0.2867
     57  CB        29.2690   -5.6360   19.7290 C.3    85  TYR85       0.0534
     58  CG        28.7520   -5.2780   21.1180 C.ar   85  TYR85      -0.0201
     59  CD1       29.3700   -5.7850   22.2640 C.ar   85  TYR85      -0.0009
     60  CD2       27.6310   -4.4690   21.2850 C.ar   85  TYR85      -0.0009
     61  CE1       28.8910   -5.5040   23.5370 C.ar   85  TYR85       0.0417
     62  CE2       27.1350   -4.1760   22.5620 C.ar   85  TYR85       0.0417
     63  CZ        27.7740   -4.7070   23.6860 C.ar   85  TYR85       0.1957
     64  OH        27.2790   -4.4690   24.9550 O.3    85  TYR85      -0.2866
     65  N         18.4620  -10.4120   24.4980 N.3   137  GLY137     -0.1210
     66  CA        18.4360  -10.6250   25.9390 C.3   137  GLY137      0.1956
     67  C         17.6640   -9.4560   26.5370 C.2   137  GLY137      0.2612
     68  O         16.9670   -8.7470   25.8060 O.2   137  GLY137     -0.2717
     69  N         17.7610   -9.2380   27.8420 N.am  138  VAL138     -0.1965
     70  CA        17.0530   -8.1100   28.4540 C.3   138  VAL138      0.1727
     71  C         17.9450   -7.4250   29.5080 C.2   138  VAL138      0.2616
     72  O         18.7500   -8.0830   30.1500 O.2   138  VAL138     -0.2715
     73  CB        15.6630   -8.5710   29.0420 C.3   138  VAL138      0.0290
     74  CG1       15.8590   -9.5650   30.1820 C.3   138  VAL138      0.0023
     75  CG2       14.8430   -7.3780   29.4810 C.3   138  VAL138      0.0023
     76  N         17.8710   -6.1040   29.6320 N.am  139  GLY139     -0.1955
     77  CA        18.6950   -5.4280   30.6210 C.3   139  GLY139      0.1869
     78  C         18.0680   -5.4670   32.0050 C.2   139  GLY139      0.2309
     79  O         16.8670   -5.7120   32.1230 O.2   139  GLY139     -0.2863
     80  N         15.5660   -2.9660   29.3320 N.3   143  HIS143     -0.1241
     81  CA        15.7790   -2.6100   27.9290 C.3   143  HIS143      0.1621
     82  C         15.9060   -3.7860   26.9650 C.2   143  HIS143      0.2264
     83  O         16.2800   -4.8910   27.3540 O.2   143  HIS143     -0.2867
     84  CB        16.9720   -1.6420   27.7640 C.3   143  HIS143      0.0745
     85  CG        18.3120   -2.2380   28.0710 C.ar  143  HIS143      0.0817
     86  ND1       19.2310   -1.6140   28.8870 N.ar  143  HIS143     -0.2268
     87  CD2       18.8850   -3.4070   27.6950 C.ar  143  HIS143      0.1154
     88  CE1       20.3070   -2.3700   29.0080 C.ar  143  HIS143      0.1986
     89  NE2       20.1210   -3.4650   28.2950 N.ar  143  HIS143     -0.2212
     90  N         17.6650   -4.5190   23.3390 N.3   145  ALA145     -0.1231
     91  CA        18.7720   -3.9030   22.5810 C.3   145  ALA145      0.1694
     92  C         19.2600   -2.7830   23.5460 C.2   145  ALA145      0.2592
     93  O         19.4310   -3.0550   24.7370 O.2   145  ALA145     -0.2718
     94  CB        18.3040   -3.3460   21.2130 C.3   145  ALA145      0.0304
     95  N         19.4990   -1.5560   23.0830 N.am  146  PHE146     -0.1976
     96  CA        19.8920   -0.4920   24.0130 C.3   146  PHE146      0.1639
     97  C         18.8350    0.6070   24.0550 C.2   146  PHE146      0.2290
     98  O         19.1390    1.7860   24.2480 O.2   146  PHE146     -0.2864
     99  CB        21.2850    0.0910   23.7200 C.3   146  PHE146      0.0560
    100  CG        22.4320   -0.7620   24.2460 C.ar  146  PHE146     -0.0200
    101  CD1       22.3570   -1.3720   25.5020 C.ar  146  PHE146     -0.0042
    102  CD2       23.5730   -0.9730   23.4750 C.ar  146  PHE146     -0.0042
    103  CE1       23.3840   -2.1820   25.9730 C.ar  146  PHE146     -0.0003
    104  CE2       24.6110   -1.7850   23.9380 C.ar  146  PHE146     -0.0003
    105  CZ        24.5110   -2.3890   25.1970 C.ar  146  PHE146     -0.0000
    106  N         23.0860    0.6420   33.2650 N.3   166  THR166     -0.1218
    107  CA        23.5460   -0.2520   32.2000 C.3   166  THR166      0.1862
    108  C         25.0750   -0.2830   32.1470 C.2   166  THR166      0.2287
    109  O         25.6670   -1.3450   31.9540 O.2   166  THR166     -0.2866
    110  CB        22.9780    0.1710   30.8130 C.3   166  THR166      0.1770
    111  OG1       21.5660   -0.1130   30.7580 O.3   166  THR166     -0.2211
    112  CG2       23.7020   -0.5520   29.6810 C.3   166  THR166      0.0375
    113  N         27.5540   -3.4110   32.7050 N.3   170  ASN170     -0.1240
    114  CA        28.4880   -3.8140   31.6570 C.3   170  ASN170      0.1653
    115  C         29.9610   -3.6660   32.0260 C.2   170  ASN170      0.2266
    116  O         30.8260   -4.2540   31.3750 O.2   170  ASN170     -0.2867
    117  CB        28.1850   -3.0770   30.3460 C.3   170  ASN170      0.1155
    118  CG        26.9790   -3.6540   29.6040 C.2   170  ASN170      0.2627
    119  OD1       26.2700   -4.5270   30.1130 O.2   170  ASN170     -0.2716
    120  ND2       26.7300   -3.1480   28.4000 N.am  170  ASN170     -0.0877
    121  N         31.5010   -5.0850   34.1400 N.3   172  ARG172     -0.1231
    122  CA        31.9980   -6.4040   34.5260 C.3   172  ARG172      0.1694
    123  C         32.9360   -6.9330   33.4450 C.2   172  ARG172      0.2592
    124  O         33.7750   -7.7930   33.7100 O.2   172  ARG172     -0.2718
    125  CB        30.8200   -7.3740   34.7510 C.3   172  ARG172      0.0321
    126  CG        30.5820   -8.4090   33.6560 C.3   172  ARG172      0.0489
    127  CD        29.3620   -9.2640   33.9410 C.3   172  ARG172      0.2205
    128  NE        28.1440   -8.5250   33.6210 N.pl3 172  ARG172     -0.0865
    129  CZ        27.1990   -8.9230   32.7670 C.cat 172  ARG172      0.5346
    130  NH1       27.2910  -10.0870   32.1220 N.pl3 172  ARG172      0.1354
    131  NH2       26.1710   -8.1300   32.5260 N.pl3 172  ARG172      0.1354
    132  N         32.7760   -6.4070   32.2290 N.am  173  PHE173     -0.1976
    133  CA        33.5860   -6.7950   31.0790 C.3   173  PHE173      0.1639
    134  C         34.7510   -5.8340   30.8390 C.2   173  PHE173      0.2290
    135  O         35.5920   -6.0790   29.9740 O.2   173  PHE173     -0.2864
    136  CB        32.7130   -6.8690   29.8240 C.3   173  PHE173      0.0560
    137  CG        31.6080   -7.8710   29.9230 C.ar  173  PHE173     -0.0200
    138  CD1       31.8890   -9.2090   30.1900 C.ar  173  PHE173     -0.0042
    139  CD2       30.2870   -7.4820   29.7520 C.ar  173  PHE173     -0.0042
    140  CE1       30.8640  -10.1510   30.2830 C.ar  173  PHE173     -0.0003
    141  CE2       29.2590   -8.4090   29.8430 C.ar  173  PHE173     -0.0003
    142  CZ        29.5480   -9.7470   30.1080 C.ar  173  PHE173     -0.0000
    143  N         17.5230  -10.5540   36.6020 N.3   208  LYS208     -0.1245
    144  CA        16.5690  -10.2160   35.5410 C.3   208  LYS208      0.1561
    145  C         15.1000  -10.4400   35.9210 C.2   208  LYS208      0.2260
    146  O         14.2090  -10.1610   35.1190 O.2   208  LYS208     -0.2867
    147  CB        16.8850  -11.0140   34.2690 C.3   208  LYS208      0.0271
    148  CG        18.2930  -10.8070   33.7180 C.3   208  LYS208      0.0035
    149  CD        18.5170   -9.3800   33.2690 C.3   208  LYS208      0.0206
    150  CE        19.9660   -9.1720   32.8250 C.3   208  LYS208      0.1093
    151  NZ        20.2360   -9.8590   31.5470 N.3   208  LYS208     -0.1314
@<TRIPOS>BOND
     1    37    38    1
     2    38    39    1
     3    38    41    1
     4    40    39    2
     5    39    45   am
     6    56    55    2
     7    45    46    1
     8    48    47    2
     9    55    54    1
    10    46    47    1
    11    46    49    1
    12    42    41    1
    13    42    43    1
    14     1     7    1
    15     1     2    1
    16    57    54    1
    17    57    58    1
    18    54    53    1
    19     7     6    1
    20    49    50    1
    21     2     3    1
    22     2     5    1
    23    43    44    1
    24     4     3    2
    25    14    12    1
    26    50    51   ar
    27    50    52   ar
    28     3     8   am
    29    58    60   ar
    30    58    59   ar
    31    94    91    1
    32    60    62   ar
    33     6     5    1
    34     8     9    1
    35    59    61   ar
    36    12     9    1
    37    12    13    1
    38    62    63   ar
    39    91    90    1
    40    91    92    1
    41     9    10    1
    42    95    92   am
    43    95    96    1
    44   102   104   ar
    45   102   100   ar
    46    61    63   ar
    47    92    93    2
    48    34    35    1
    49    34    31    1
    50    63    64    1
    51    99    96    1
    52    99   100    1
    53    33    32    2
    54   104   105   ar
    55    35    36    1
    56    96    97    1
    57    97    98    2
    58    10    11    2
    59    10    15   am
    60   100   101   ar
    61    65    66    1
    62    32    31    1
    63    31    30    1
    64    15    16    1
    65   105   103   ar
    66    36    30    1
    67   101   103   ar
    68    68    67    2
    69    30    25   am
    70    66    67    1
    71    18    17    2
    72    16    17    1
    73    67    69   am
    74    17    19   am
    75    82    83    2
    76    82    81    1
    77    25    26    2
    78    25    24    1
    79    87    85   ar
    80    87    89   ar
    81    84    81    1
    82    84    85    1
    83    69    70    1
    84    81    80    1
    85    29    27    1
    86    27    24    1
    87    27    28    1
    88    85    86   ar
    89    19    20    1
    90    24    23    1
    91    89    88   ar
    92   120   118   am
    93    22    21    2
    94    70    73    1
    95    70    71    1
    96    23    21   am
    97    21    20    1
    98    86    88   ar
    99    73    75    1
   100    73    74    1
   101    71    76   am
   102    71    72    2
   103   118   119    2
   104   118   117    1
   105    76    77    1
   106   112   110    1
   107   139   141   ar
   108   139   137   ar
   109   136   137    1
   110   136   133    1
   111   141   142   ar
   112   137   138   ar
   113   135   134    2
   114   142   140   ar
   115   138   140   ar
   116   117   114    1
   117    77    78    1
   118   111   110    1
   119   110   107    1
   120   134   133    1
   121   133   132    1
   122   116   115    2
   123   151   150    1
   124   114   115    1
   125   114   113    1
   126   109   108    2
   127    78    79    2
   128   130   129    1
   129   108   107    1
   130   107   106    1
   131   132   123   am
   132   131   129    1
   133   129   128    2
   134   150   149    1
   135   149   148    1
   136   123   124    2
   137   123   122    1
   138   128   127    1
   139   126   127    1
   140   126   125    1
   141   148   147    1
   142   121   122    1
   143   147   144    1
   144   122   125    1
   145   146   145    2
   146   144   145    1
   147   144   143    1
