@<TRIPOS>MOLECULE
tmp/1fr6B01.pdb
 156 146 0 0 0
SMALL
GASTEIGER

@<TRIPOS>ATOM
      1  N         65.5400   46.7410    8.7120 N.3    63  GLY63      -0.1210
      2  CA        64.7030   45.4920    8.8780 C.3    63  GLY63       0.1956
      3  C         64.4750   45.3760   10.4120 C.2    63  GLY63       0.2609
      4  O         64.1700   46.3280   11.0900 O.2    63  GLY63      -0.2717
      5  N         64.6400   44.1810   10.9220 N.am   64  SER64      -0.2005
      6  CA        64.4820   43.7500   12.2630 C.3    64  SER64       0.1610
      7  C         65.5600   44.2520   13.1600 C.3    64  SER64       0.2063
      8  O         65.3400   44.0820   14.4180 O.3    64  SER64      -0.2184
      9  CB        64.3660   42.2460   12.3980 C.3    64  SER64       0.2063
     10  OG        63.2550   41.7650   11.7420 O.3    64  SER64      -0.2184
     11  N         64.2090   46.3320   16.1520 N.3    67  LYS67      -0.1245
     12  CA        63.6820   45.7460   17.3990 C.3    67  LYS67       0.1561
     13  C         64.5800   46.0810   18.6060 C.2    67  LYS67       0.2260
     14  O         64.0850   46.0610   19.7210 O.2    67  LYS67      -0.2867
     15  CB        63.4850   44.2420   17.2600 C.3    67  LYS67       0.0271
     16  CG        62.2340   43.9710   16.3980 C.3    67  LYS67       0.0035
     17  CD        62.3690   42.5300   15.8350 C.3    67  LYS67       0.0206
     18  CE        61.0040   42.0490   15.3670 C.3    67  LYS67       0.1093
     19  NZ        61.1790   41.1090   14.2350 N.3    67  LYS67      -0.1314
     20  N         53.9910   35.9070   12.4340 N.3   119  LEU119     -0.1231
     21  CA        55.2520   36.4490   11.9650 C.3   119  LEU119      0.1693
     22  C         55.1110   37.8240   11.2880 C.2   119  LEU119      0.2591
     23  O         55.9710   38.7030   11.3760 O.2   119  LEU119     -0.2718
     24  CB        55.9730   35.5360   10.9430 C.3   119  LEU119      0.0284
     25  CG        57.3320   36.2010   10.6040 C.3   119  LEU119      0.0019
     26  CD1       58.3890   36.1200   11.6340 C.3   119  LEU119      0.0001
     27  CD2       57.8340   35.3730    9.3770 C.3   119  LEU119      0.0001
     28  N         54.0090   37.9270   10.5920 N.am  120  GLN120     -0.1979
     29  CA        53.5820   39.0570    9.8490 C.3   120  GLN120      0.1601
     30  C         52.0830   39.2890   10.1790 C.2   120  GLN120      0.2287
     31  O         51.3210   38.3480   10.3200 O.2   120  GLN120     -0.2864
     32  CB        53.5940   38.9130    8.3080 C.3   120  GLN120      0.0394
     33  CG        54.9240   38.3840    7.7740 C.3   120  GLN120      0.0908
     34  CD        56.0280   39.3640    8.0680 C.2   120  GLN120      0.2608
     35  OE1       55.5760   40.5550    8.4940 O.2   120  GLN120     -0.2717
     36  NE2       57.2000   39.0970    7.9120 N.am  120  GLN120     -0.0878
     37  N         59.1090   34.1440   17.1510 N.3   150  TYR150     -0.1241
     38  CA        59.5370   35.4320   16.6030 C.3   150  TYR150      0.1605
     39  C         58.4240   36.0390   15.7900 C.2   150  TYR150      0.2264
     40  O         58.0860   35.4650   14.7280 O.2   150  TYR150     -0.2867
     41  CB        60.8090   35.1210   15.7320 C.3   150  TYR150      0.0534
     42  CG        61.4850   36.4110   15.3170 C.ar  150  TYR150     -0.0201
     43  CD1       61.2190   36.9740   14.0820 C.ar  150  TYR150     -0.0009
     44  CD2       62.3780   37.0620   16.1710 C.ar  150  TYR150     -0.0009
     45  CE1       61.8290   38.1770   13.6680 C.ar  150  TYR150      0.0417
     46  CE2       62.9940   38.2360   15.8050 C.ar  150  TYR150      0.0417
     47  CZ        62.7180   38.8010   14.5350 C.ar  150  TYR150      0.1957
     48  OH        63.3220   39.9690   14.1980 O.3   150  TYR150     -0.2866
     49  N         56.4410   39.8460   14.4210 N.3   152  ASN152     -0.1240
     50  CA        56.4690   41.3300   14.3740 C.3   152  ASN152      0.1653
     51  C         55.0790   41.7850   14.8610 C.2   152  ASN152      0.2266
     52  O         54.9520   42.9490   15.2230 O.2   152  ASN152     -0.2867
     53  CB        56.7680   41.9030   13.0450 C.3   152  ASN152      0.1155
     54  CG        58.0410   41.5310   12.3420 C.2   152  ASN152      0.2627
     55  OD1       59.1190   41.5600   12.9390 O.2   152  ASN152     -0.2716
     56  ND2       57.8850   41.1620   11.0590 N.am  152  ASN152     -0.0877
     57  N         66.5030   43.5040   -4.9150 N.3   204  ARG204     -0.1245
     58  CA        65.8280   42.1840   -4.8750 C.3   204  ARG204      0.1563
     59  C         65.7220   41.6880   -6.2970 C.2   204  ARG204      0.2260
     60  O         65.2540   42.4980   -7.1450 O.2   204  ARG204     -0.2867
     61  CB        64.4210   42.4480   -4.3790 C.3   204  ARG204      0.0307
     62  CG        63.6350   41.4360   -3.6390 C.3   204  ARG204      0.0489
     63  CD        62.3240   42.0430   -3.2290 C.3   204  ARG204      0.2205
     64  NE        61.3990   41.1060   -2.6900 N.pl3 204  ARG204     -0.0865
     65  CZ        61.6270   39.9940   -2.0000 C.cat 204  ARG204      0.5346
     66  NH1       62.8040   39.8010   -1.4020 N.pl3 204  ARG204      0.1354
     67  NH2       60.6440   39.0690   -1.9670 N.pl3 204  ARG204      0.1354
     68  N         61.0250   49.4030    1.3530 N.3   211  VAL211     -0.1231
     69  CA        60.0590   48.7570    2.2530 C.3   211  VAL211      0.1692
     70  C         58.7360   49.5300    2.0000 C.2   211  VAL211      0.2592
     71  O         58.7380   50.7350    1.7150 O.2   211  VAL211     -0.2718
     72  CB        60.5020   48.7960    3.6930 C.3   211  VAL211      0.0266
     73  CG1       60.8520   50.2300    4.1450 C.3   211  VAL211      0.0020
     74  CG2       59.4850   48.1650    4.6590 C.3   211  VAL211      0.0020
     75  N         57.6630   48.7920    2.1190 N.am  212  SER212     -0.1952
     76  CA        56.3030   49.3000    1.9230 C.3   212  SER212      0.1924
     77  C         55.6340   49.5110    3.2910 C.2   212  SER212      0.2314
     78  O         56.0310   48.8520    4.2560 O.2   212  SER212     -0.2863
     79  CB        55.4740   48.2770    1.1130 C.3   212  SER212      0.2116
     80  OG        54.1970   48.8100    0.7490 O.3   212  SER212     -0.2180
     81  N         60.0580   46.8550   12.0060 N.3   221  TYR221     -0.1298
     82  CA        61.1460   46.9010   11.0160 C.3   221  TYR221      0.1290
     83  C         61.4600   48.1420   10.2180 C.3   221  TYR221      0.2013
     84  O         62.1540   47.9310    9.1570 O.3   221  TYR221     -0.2188
     85  CB        60.8000   45.7640    9.9310 C.3   221  TYR221      0.0480
     86  CG        59.4060   45.9440    9.4030 C.ar  221  TYR221     -0.0204
     87  CD1       58.3640   45.1350    9.9360 C.ar  221  TYR221     -0.0009
     88  CD2       59.0910   46.8570    8.4100 C.ar  221  TYR221     -0.0009
     89  CE1       57.0580   45.2650    9.4780 C.ar  221  TYR221      0.0417
     90  CE2       57.7850   46.9930    7.9290 C.ar  221  TYR221      0.0417
     91  CZ        56.7650   46.2040    8.4710 C.ar  221  TYR221      0.1957
     92  OH        55.4880   46.3680    8.0020 O.3   221  TYR221     -0.2866
     93  N         65.6040   30.0360   13.4640 N.3   292  ALA292     -0.1231
     94  CA        65.2640   31.4270   13.6060 C.3   292  ALA292      0.1694
     95  C         63.7670   31.6830   13.7040 C.2   292  ALA292      0.2591
     96  O         63.2860   32.4340   14.5670 O.2   292  ALA292     -0.2718
     97  CB        65.8440   32.3040   12.5140 C.3   292  ALA292      0.0304
     98  N         63.0350   31.0640   12.8070 N.am  293  LEU293     -0.1980
     99  CA        61.5810   31.1920   12.7040 C.3   293  LEU293      0.1596
    100  C         60.7410   30.1500   13.3300 C.2   293  LEU293      0.2287
    101  O         59.4880   30.2730   13.1550 O.2   293  LEU293     -0.2864
    102  CB        61.4190   31.3440   11.1340 C.3   293  LEU293      0.0297
    103  CG        61.0730   32.7990   10.7490 C.3   293  LEU293      0.0022
    104  CD1       61.5740   33.7450   11.7820 C.3   293  LEU293      0.0001
    105  CD2       61.6210   33.0930    9.3600 C.3   293  LEU293      0.0001
    106  N         71.9110   40.9560   16.6290 N.3   315  LYS315     -0.1182
    107  CA        70.5810   40.9810   15.9720 C.3   315  LYS315      0.1909
    108  C         70.7350   40.9790   14.4570 C.2   315  LYS315      0.2635
    109  O         71.4780   41.7970   13.8720 O.2   315  LYS315     -0.2714
    110  CB        69.7720   42.1310   16.4300 C.2   315  LYS315     -0.0028
    111  CG        68.3040   42.0560   16.5300 C.2   315  LYS315     -0.0272
    112  CD        67.6390   40.7510   16.3020 C.3   315  LYS315      0.0462
    113  CE        66.1540   41.0100   16.0830 C.3   315  LYS315      0.1140
    114  NZ        65.5220   40.0000   15.2320 N.3   315  LYS315     -0.1310
    115  N         70.0300   40.0790   13.8280 N.am  316  THR316     -0.1936
    116  CA        70.0230   39.9650   12.3570 C.3   316  THR316      0.2028
    117  C         68.7830   40.7890   11.9550 C.2   316  THR316      0.2643
    118  O         67.9820   41.1410   12.8670 O.2   316  THR316     -0.2714
    119  CB        70.1140   38.4980   11.8320 C.3   316  THR316      0.1808
    120  OG1       68.9360   37.8100   12.2620 O.3   316  THR316     -0.2208
    121  CG2       71.3500   37.6990   12.2560 C.3   316  THR316      0.0379
    122  N         68.5670   41.1320   10.7500 N.am  317  GLY317     -0.1939
    123  CA        67.5030   41.8520   10.1460 C.3   317  GLY317      0.2014
    124  C         67.4260   41.6820    8.6180 C.2   317  GLY317      0.2640
    125  O         68.4520   41.5450    7.9420 O.2   317  GLY317     -0.2714
    126  N         66.1940   41.7180    8.0680 N.am  318  SER318     -0.1935
    127  CA        65.9240   41.6130    6.6370 C.3   318  SER318      0.2055
    128  C         64.7320   42.4480    6.1280 C.2   318  SER318      0.2644
    129  O         63.8750   43.1070    6.7960 O.2   318  SER318     -0.2714
    130  CB        65.7910   40.1890    6.2490 C.3   318  SER318      0.2130
    131  OG        66.9720   39.4070    6.3960 O.3   318  SER318     -0.2179
    132  N         64.6380   42.4510    4.8020 N.am  319  THR319     -0.1936
    133  CA        63.6700   43.0890    3.9470 C.3   319  THR319      0.2028
    134  C         63.6790   42.4520    2.5270 C.2   319  THR319      0.2642
    135  O         64.2940   41.4070    2.2500 O.2   319  THR319     -0.2714
    136  CB        63.8330   44.6490    3.7390 C.3   319  THR319      0.1808
    137  OG1       65.2480   44.9410    3.9730 O.3   319  THR319     -0.2208
    138  CG2       62.8830   45.5420    4.5000 C.3   319  THR319      0.0379
    139  N         62.9560   43.1650    1.6910 N.am  320  GLY320     -0.1954
    140  CA        62.8200   42.7910    0.2440 C.3   320  GLY320      0.1869
    141  C         64.2400   43.0140   -0.3580 C.2   320  GLY320      0.2309
    142  O         64.8840   42.0880   -0.8880 O.2   320  GLY320     -0.2863
    143  N         69.5050   41.5160    0.1580 N.3   343  SER343     -0.1217
    144  CA        68.9700   40.5370    1.0730 C.3   343  SER343      0.1889
    145  C         69.4510   39.1120    0.8600 C.2   343  SER343      0.2288
    146  O         68.8640   38.3500    0.0480 O.2   343  SER343     -0.2866
    147  CB        67.4350   40.5430    0.7980 C.3   343  SER343      0.2089
    148  OG        66.8350   39.7610    1.8120 O.3   343  SER343     -0.2183
    149  N         70.4750   34.8420    6.2170 N.3   346  ASN346     -0.1240
    150  CA        71.0150   35.1880    7.5430 C.3   346  ASN346      0.1653
    151  C         72.3190   34.5400    7.9230 C.2   346  ASN346      0.2266
    152  O         73.2540   35.2840    8.3160 O.2   346  ASN346     -0.2867
    153  CB        69.8910   35.0740    8.6170 C.3   346  ASN346      0.1155
    154  CG        69.1190   36.3980    8.6250 C.2   346  ASN346      0.2627
    155  OD1       67.8970   36.4610    8.8190 O.2   346  ASN346     -0.2716
    156  ND2       69.8730   37.4670    8.3870 N.am  346  ASN346     -0.0877
@<TRIPOS>BOND
     1    60    59    2
     2    59    58    1
     3    57    58    1
     4    58    61    1
     5    61    62    1
     6    62    63    1
     7    63    64    1
     8    64    65    2
     9    65    67    1
    10    65    66    1
    11   142   141    2
    12   141   140    1
    13   146   145    2
    14   143   144    1
    15   140   139    1
    16    80    79    1
    17   147   144    1
    18   147   148    1
    19   145   144    1
    20    79    76    1
    21    68    69    1
    22   139   134   am
    23    71    70    2
    24    76    75    1
    25    76    77    1
    26    70    75   am
    27    70    69    1
    28   135   134    2
    29    69    72    1
    30   134   133    1
    31    77    78    2
    32    72    73    1
    33    72    74    1
    34   136   133    1
    35   136   137    1
    36   136   138    1
    37   133   132    1
    38   132   128   am
    39   128   127    1
    40   128   129    2
    41   149   150    1
    42   130   131    1
    43   130   127    1
    44   127   126    1
    45   150   151    1
    46   150   153    1
    47    33    34    1
    48    33    32    1
    49    36    34   am
    50   151   152    2
    51    90    88   ar
    52    90    91   ar
    53   125   124    2
    54    92    91    1
    55    34    35    2
    56   126   124   am
    57    32    29    1
    58   156   154   am
    59    88    86   ar
    60    91    89   ar
    61   153   154    1
    62   124   123    1
    63   154   155    2
    64     1     2    1
    65     2     3    1
    66    84    83    1
    67   105   103    1
    68    27    25    1
    69    86    85    1
    70    86    87   ar
    71    89    87   ar
    72    29    30    1
    73    29    28    1
    74    85    82    1
    75   123   122    1
    76    30    31    2
    77    83    82    1
    78     3     5   am
    79     3     4    2
    80    28    22   am
    81    25    24    1
    82    25    26    1
    83   103   102    1
    84   103   104    1
    85   122   117   am
    86     5     6    1
    87    24    21    1
    88    82    81    1
    89    56    54   am
    90   102    99    1
    91    22    23    2
    92    22    21    1
    93    10     9    1
    94   119   121    1
    95   119   120    1
    96   119   116    1
    97   117   116    1
    98   117   118    2
    99    21    20    1
   100     6     9    1
   101     6     7    1
   102    54    55    2
   103    54    53    1
   104   116   115    1
   105    97    94    1
   106    99    98    1
   107    99   100    1
   108    98    95   am
   109    53    50    1
   110   101   100    2
   111     7     8    1
   112    93    94    1
   113    94    95    1
   114    45    43   ar
   115    45    47   ar
   116    95    96    2
   117   115   108   am
   118   109   108    2
   119    43    42   ar
   120    48    47    1
   121    19    18    1
   122    50    49    1
   123    50    51    1
   124   108   107    1
   125    47    46   ar
   126    40    39    2
   127    51    52    2
   128   114   113    1
   129    42    41    1
   130    42    44   ar
   131    18    17    1
   132    41    38    1
   133    39    38    1
   134    46    44   ar
   135    17    16    1
   136   107   110    1
   137   107   106    1
   138   113   112    1
   139    11    12    1
   140   112   111    1
   141    16    15    1
   142   110   111    2
   143    38    37    1
   144    15    12    1
   145    12    13    1
   146    13    14    2
