@<TRIPOS>MOLECULE
tmp/1frbA01.pdb
 215 219 0 0 0
SMALL
GASTEIGER

@<TRIPOS>ATOM
      1  N         80.6120  -13.0930   28.6960 N.3    20  TRP20      -0.1241
      2  CA        79.7790  -12.4770   27.6560 C.3    20  TRP20       0.1605
      3  C         80.0250  -13.1940   26.3290 C.2    20  TRP20       0.2264
      4  O         81.1700  -13.3270   25.8840 O.2    20  TRP20      -0.2867
      5  CB        80.1220  -10.9940   27.5160 C.3    20  TRP20       0.0550
      6  CG        79.4510  -10.2570   26.3560 C.ar   20  TRP20       0.0003
      7  CD1       78.1550  -10.5250   25.9810 C.ar   20  TRP20       0.0946
      8  CD2       80.0390   -9.2660   25.5940 C.ar   20  TRP20       0.0152
      9  NE1       77.9350   -9.7040   24.9680 N.ar   20  TRP20      -0.2442
     10  CE2       79.0220   -8.9410   24.6930 C.ar   20  TRP20       0.0810
     11  CE3       81.2710   -8.6230   25.5370 C.ar   20  TRP20       0.0012
     12  CZ2       79.2250   -7.9700   23.7130 C.ar   20  TRP20       0.0191
     13  CZ3       81.4750   -7.6580   24.5580 C.ar   20  TRP20       0.0001
     14  CH2       80.4610   -7.3370   23.6520 C.ar   20  TRP20       0.0015
     15  N         72.6450   -9.6180   31.7480 N.3    47  ALA47      -0.1231
     16  CA        72.5410   -9.3490   30.3140 C.3    47  ALA47       0.1694
     17  C         73.2170  -10.3830   29.4230 C.2    47  ALA47       0.2592
     18  O         73.0800  -10.3530   28.1980 O.2    47  ALA47      -0.2718
     19  CB        73.1690   -7.9990   29.9820 C.3    47  ALA47       0.0304
     20  N         74.0480  -11.2500   29.9980 N.am   48  TYR48      -0.1976
     21  CA        74.7230  -12.2460   29.1780 C.3    48  TYR48       0.1639
     22  C         73.8310  -13.4440   28.8470 C.2    48  TYR48       0.2290
     23  O         74.1990  -14.3110   28.0480 O.2    48  TYR48      -0.2864
     24  CB        76.0230  -12.6640   29.8630 C.3    48  TYR48       0.0560
     25  CG        77.0460  -11.5180   30.0380 C.ar   48  TYR48      -0.0198
     26  CD1       76.8560  -10.2830   29.4210 C.ar   48  TYR48      -0.0009
     27  CD2       78.1580  -11.7100   30.8600 C.ar   48  TYR48      -0.0009
     28  CE1       77.7600   -9.2440   29.6460 C.ar   48  TYR48       0.0417
     29  CE2       79.0650  -10.6760   31.0860 C.ar   48  TYR48       0.0417
     30  CZ        78.8520   -9.4460   30.4880 C.ar   48  TYR48       0.1957
     31  OH        79.6790   -8.3700   30.8130 O.3    48  TYR48      -0.2866
     32  N         71.6370   -4.5960   35.0750 N.3    79  TRP79      -0.1228
     33  CA        71.4260   -3.9210   33.7970 C.3    79  TRP79       0.1722
     34  C         70.5770   -2.6740   34.0180 C.2    79  TRP79       0.2437
     35  O         69.6520   -2.6800   34.8520 O.2    79  TRP79      -0.2733
     36  CB        70.7380   -4.8790   32.8250 C.3    79  TRP79       0.0563
     37  CG        70.7500   -4.3980   31.3750 C.ar   79  TRP79       0.0003
     38  CD1       69.6030   -3.9730   30.7610 C.ar   79  TRP79       0.0946
     39  CD2       71.8630   -4.3200   30.5690 C.ar   79  TRP79       0.0152
     40  NE1       70.0010   -3.6190   29.5580 N.ar   79  TRP79      -0.2442
     41  CE2       71.3370   -3.8050   29.3890 C.ar   79  TRP79       0.0810
     42  CE3       73.2140   -4.6240   30.6870 C.ar   79  TRP79       0.0012
     43  CZ2       72.1660   -3.5890   28.2940 C.ar   79  TRP79       0.0191
     44  CZ3       74.0350   -4.4230   29.5970 C.ar   79  TRP79       0.0001
     45  CH2       73.5130   -3.9100   28.4100 C.ar   79  TRP79       0.0015
     46  N         70.8130   -1.6190   33.2250 N.am   80  PRO80      -0.2729
     47  CA        70.2130   -0.3060   33.4880 C.3    80  PRO80       0.1401
     48  C         68.6950   -0.2210   33.2860 C.2    80  PRO80       0.2269
     49  O         68.1090    0.8480   33.4550 O.2    80  PRO80      -0.2865
     50  CB        70.9940    0.6560   32.6080 C.3    80  PRO80       0.0296
     51  CG        71.9270   -0.1490   31.7320 C.3    80  PRO80       0.0237
     52  CD        71.9690   -1.5530   32.3240 C.3    80  PRO80       0.0939
     53  N         75.8860   -2.0360   35.9030 N.3   110  HIS110     -0.1226
     54  CA        76.5040   -2.4170   34.6310 C.3   110  HIS110      0.1752
     55  C         76.9250   -1.2640   33.7220 C.2   110  HIS110      0.2596
     56  O         77.9710   -1.3110   33.0830 O.2   110  HIS110     -0.2718
     57  CB        75.5590   -3.3690   33.9110 C.3   110  HIS110      0.0759
     58  CG        76.2590   -4.3860   33.0090 C.ar  110  HIS110      0.0818
     59  ND1       75.7470   -5.5770   32.7210 N.ar  110  HIS110     -0.2268
     60  CD2       77.3820   -4.2090   32.2420 C.ar  110  HIS110      0.1154
     61  CE1       76.4930   -6.1590   31.8180 C.ar  110  HIS110      0.1986
     62  NE2       77.4740   -5.3200   31.5480 N.ar  110  HIS110     -0.2212
     63  N         76.0730   -0.2540   33.5930 N.am  111  TRP111     -0.1963
     64  CA        76.3490    0.9130   32.7630 C.3   111  TRP111      0.1756
     65  C         75.6940    2.0870   33.4900 C.2   111  TRP111      0.2461
     66  O         74.6980    1.9040   34.1800 O.2   111  TRP111     -0.2730
     67  CB        75.7030    0.7240   31.3770 C.3   111  TRP111      0.0590
     68  CG        76.4210   -0.2790   30.4450 C.ar  111  TRP111      0.0006
     69  CD1       76.0400   -1.6010   30.3510 C.ar  111  TRP111      0.0946
     70  CD2       77.5070    0.0110   29.6590 C.ar  111  TRP111      0.0152
     71  NE1       76.9070   -2.1390   29.5070 N.ar  111  TRP111     -0.2442
     72  CE2       77.7980   -1.2230   29.0740 C.ar  111  TRP111      0.0810
     73  CE3       78.2480    1.1460   29.3680 C.ar  111  TRP111      0.0012
     74  CZ2       78.8500   -1.3420   28.1820 C.ar  111  TRP111      0.0191
     75  CZ3       79.3000    1.0300   28.4670 C.ar  111  TRP111      0.0001
     76  CH2       79.5940   -0.1990   27.8830 C.ar  111  TRP111      0.0015
     77  N         76.1650    3.3190   33.3440 N.am  112  PRO112     -0.2716
     78  CA        75.6730    4.4100   34.1890 C.3   112  PRO112      0.1536
     79  C         74.3480    4.9870   33.7160 C.2   112  PRO112      0.2598
     80  O         73.7440    5.7900   34.4380 O.2   112  PRO112     -0.2715
     81  CB        76.7350    5.4860   34.1070 C.3   112  PRO112      0.0310
     82  CG        77.6080    5.1370   32.9290 C.3   112  PRO112      0.0237
     83  CD        77.4500    3.6220   32.7260 C.3   112  PRO112      0.0939
     84  N         73.9860    4.7360   32.4440 N.am  113  GLN113     -0.1978
     85  CA        72.7620    5.2990   31.8890 C.3   113  GLN113      0.1601
     86  C         71.5560    4.4210   32.1130 C.2   113  GLN113      0.2287
     87  O         71.4720    3.3310   31.5820 O.2   113  GLN113     -0.2864
     88  CB        72.9220    5.5360   30.3900 C.3   113  GLN113      0.0394
     89  CG        71.6830    6.1180   29.7150 C.3   113  GLN113      0.0908
     90  CD        71.3190    7.5010   30.2370 C.2   113  GLN113      0.2608
     91  OE1       72.0930    8.4480   30.1570 O.2   113  GLN113     -0.2717
     92  NE2       70.1470    7.6530   30.8470 N.am  113  GLN113     -0.0878
     93  N         68.0170    2.8940   31.4000 N.3   115  LEU115     -0.1245
     94  CA        67.2410    2.6890   30.1960 C.3   115  LEU115      0.1561
     95  C         65.7960    2.3530   30.5170 C.2   115  LEU115      0.2260
     96  O         65.4470    1.9600   31.6330 O.2   115  LEU115     -0.2867
     97  CB        67.8510    1.5630   29.3740 C.3   115  LEU115      0.0270
     98  CG        69.3090    1.7110   28.9640 C.3   115  LEU115      0.0019
     99  CD1       69.7680    0.4760   28.2170 C.3   115  LEU115      0.0001
    100  CD2       69.4880    2.9500   28.0990 C.3   115  LEU115      0.0001
    101  N         66.6610   -5.6500   26.4810 N.3   121  LEU121     -0.1231
    102  CA        67.8400   -5.1230   27.1470 C.3   121  LEU121      0.1693
    103  C         68.1030   -3.7530   26.5300 C.2   121  LEU121      0.2592
    104  O         68.5700   -2.8190   27.1850 O.2   121  LEU121     -0.2718
    105  CB        69.0680   -5.9920   26.8880 C.3   121  LEU121      0.0284
    106  CG        69.1430   -7.3570   27.5600 C.3   121  LEU121      0.0019
    107  CD1       70.4220   -8.0590   27.1280 C.3   121  LEU121      0.0001
    108  CD2       69.0980   -7.2400   29.0760 C.3   121  LEU121      0.0001
    109  N         67.7340   -3.5900   25.2540 N.am  122  PHE122     -0.1976
    110  CA        67.9490   -2.3150   24.5740 C.3   122  PHE122      0.1639
    111  C         66.6460   -1.7730   23.9920 C.2   122  PHE122      0.2290
    112  O         66.3390   -2.0440   22.8300 O.2   122  PHE122     -0.2864
    113  CB        68.9640   -2.4810   23.4420 C.3   122  PHE122      0.0560
    114  CG        70.3710   -2.8600   23.8960 C.ar  122  PHE122     -0.0200
    115  CD1       71.2880   -1.8630   24.2160 C.ar  122  PHE122     -0.0042
    116  CD2       70.7360   -4.2030   23.9810 C.ar  122  PHE122     -0.0042
    117  CE1       72.5620   -2.2160   24.6220 C.ar  122  PHE122     -0.0003
    118  CE2       72.0140   -4.5420   24.3850 C.ar  122  PHE122     -0.0003
    119  CZ        72.9230   -3.5470   24.7040 C.ar  122  PHE122     -0.0000
    120  N         88.1680   -5.2730   31.2780 N.3   209  TYR209     -0.1241
    121  CA        87.4200   -6.1830   30.4120 C.3   209  TYR209      0.1605
    122  C         87.9470   -6.1100   28.9720 C.2   209  TYR209      0.2264
    123  O         88.6160   -5.1410   28.5730 O.2   209  TYR209     -0.2867
    124  CB        85.8960   -5.9510   30.4670 C.3   209  TYR209      0.0534
    125  CG        85.3090   -4.6330   29.9170 C.ar  209  TYR209     -0.0201
    126  CD1       85.3090   -4.3820   28.5460 C.ar  209  TYR209     -0.0009
    127  CD2       84.5880   -3.7980   30.7690 C.ar  209  TYR209     -0.0009
    128  CE1       84.5620   -3.3290   28.0280 C.ar  209  TYR209      0.0417
    129  CE2       83.8440   -2.7430   30.2570 C.ar  209  TYR209      0.0417
    130  CZ        83.8260   -2.5290   28.8870 C.ar  209  TYR209      0.1957
    131  OH        82.9970   -1.5520   28.3590 O.3   209  TYR209     -0.2866
    132  N         80.0860   -8.6460   18.5430 N.3   218  PRO218     -0.2116
    133  CA        79.1660   -8.4470   17.4250 C.3   218  PRO218      0.1372
    134  C         79.5960   -7.3400   16.4630 C.2   218  PRO218      0.2244
    135  O         80.2070   -6.3430   16.8530 O.2   218  PRO218     -0.2868
    136  CB        77.8480   -8.0900   18.0880 C.3   218  PRO218      0.0268
    137  CG        78.1150   -7.7740   19.5430 C.3   218  PRO218      0.0207
    138  CD        79.5930   -8.0510   19.7900 C.3   218  PRO218      0.0892
    139  N         83.9060   -1.9320   21.2820 N.3   298  CYS298     -0.1221
    140  CA        82.4930   -2.1350   20.9990 C.3   298  CYS298      0.1808
    141  C         81.6930   -0.8940   21.3660 C.2   298  CYS298      0.2601
    142  O         81.5240   -0.5440   22.5420 O.2   298  CYS298     -0.2717
    143  CB        82.0140   -3.3500   21.7920 C.3   298  CYS298      0.0970
    144  SG        80.2790   -3.7990   21.5070 S.3   298  CYS298     -0.0800
    145  N         81.3130   -0.1180   20.3520 N.am  299  LEU299     -0.1965
    146  CA        80.5880    1.1050   20.5990 C.3   299  LEU299      0.1728
    147  C         79.2070    1.0500   20.0220 C.2   299  LEU299      0.2616
    148  O         78.9920    0.4600   18.9640 O.2   299  LEU299     -0.2715
    149  CB        81.2890    2.2850   19.9400 C.3   299  LEU299      0.0311
    150  CG        82.7330    2.5410   20.3200 C.3   299  LEU299      0.0022
    151  CD1       83.3460    3.5670   19.3780 C.3   299  LEU299      0.0001
    152  CD2       82.8140    2.9980   21.7650 C.3   299  LEU299      0.0001
    153  N         78.3250    1.8340   20.6220 N.am  300  LEU300     -0.1977
    154  CA        76.9600    1.9710   20.1670 C.3   300  LEU300      0.1596
    155  C         76.7260    3.4580   19.9090 C.2   300  LEU300      0.2287
    156  O         76.8040    4.2590   20.8360 O.2   300  LEU300     -0.2864
    157  CB        76.0140    1.5030   21.2530 C.3   300  LEU300      0.0297
    158  CG        76.1290    0.0380   21.6630 C.3   300  LEU300      0.0022
    159  CD1       75.0860   -0.2820   22.7310 C.3   300  LEU300      0.0001
    160  CD2       75.9880   -0.8640   20.4390 C.3   300  LEU300      0.0001
    161  N         74.3660    5.7030   21.6720 N.3   303  THR303     -0.1218
    162  CA        74.5260    6.0930   23.0660 C.3   303  THR303      0.1862
    163  C         75.3740    7.3410   23.2760 C.2   303  THR303      0.2287
    164  O         75.2450    7.9830   24.3130 O.2   303  THR303     -0.2866
    165  CB        75.1370    4.9220   23.8730 C.3   303  THR303      0.1770
    166  OG1       76.4600    4.7440   23.3760 O.3   303  THR303     -0.2211
    167  CG2       74.3410    3.6250   23.7360 C.3   303  THR303      0.0375
    168  N         73.5520   10.3750   25.0080 N.3   306  MET306     -0.1245
    169  CA        72.8670   10.1410   26.2730 C.3   306  MET306      0.1570
    170  C         73.4740   10.9470   27.3880 C.2   306  MET306      0.2261
    171  O         74.6930   11.0040   27.5360 O.2   306  MET306     -0.2867
    172  CB        72.9020    8.6650   26.6340 C.3   306  MET306      0.0387
    173  CG        71.9950    7.8460   25.7210 C.3   306  MET306      0.0595
    174  SD        72.1640    6.0580   25.9700 S.3   306  MET306     -0.1393
    175  CE        71.0080    5.4430   24.7850 C.3   306  MET306      0.0692
    176  N         74.3150   10.0920   30.4050 N.3   308  GLU308     -0.1231
    177  CA        75.3710    9.4940   31.2010 C.3   308  GLU308      0.1699
    178  C         76.4150    8.8090   30.3440 C.2   308  GLU308      0.2592
    179  O         77.0900    7.8770   30.7840 O.2   308  GLU308     -0.2718
    180  CB        74.7960    8.5140   32.2080 C.3   308  GLU308      0.0402
    181  CG        73.9950    9.2000   33.2990 C.3   308  GLU308      0.1161
    182  CD        74.7570   10.2790   34.0420 C.2   308  GLU308      0.3649
    183  OE1       75.9680   10.1570   34.2080 O.co2 308  GLU308     -0.2457
    184  OE2       74.1360   11.2740   34.4390 O.co2 308  GLU308     -0.2457
    185  N         76.3720    9.0280   29.0350 N.am  309  TYR309     -0.1963
    186  CA        77.3930    8.4370   28.2000 C.3   309  TYR309      0.1756
    187  C         78.7320    8.7520   28.8560 C.2   309  TYR309      0.2461
    188  O         79.0680    9.9280   29.0450 O.2   309  TYR309     -0.2730
    189  CB        77.3170    9.0700   26.8260 C.3   309  TYR309      0.0574
    190  CG        78.3830    8.5660   25.8750 C.ar  309  TYR309     -0.0198
    191  CD1       78.2640    7.3090   25.2990 C.ar  309  TYR309     -0.0009
    192  CD2       79.4180    9.4150   25.5290 C.ar  309  TYR309     -0.0009
    193  CE1       79.1860    6.9040   24.3510 C.ar  309  TYR309      0.0417
    194  CE2       80.3380    9.0240   24.5780 C.ar  309  TYR309      0.0417
    195  CZ        80.2040    7.7760   23.9980 C.ar  309  TYR309      0.1957
    196  OH        81.0880    7.4200   23.0120 O.3   309  TYR309     -0.2866
    197  N         79.6260    7.7690   29.0190 N.am  310  PRO310     -0.2716
    198  CA        80.7870    7.9700   29.8900 C.3   310  PRO310      0.1536
    199  C         82.1020    8.2290   29.1700 C.2   310  PRO310      0.2598
    200  O         83.0120    8.8250   29.7580 O.2   310  PRO310     -0.2715
    201  CB        80.8920    6.6550   30.6220 C.3   310  PRO310      0.0310
    202  CG        80.3140    5.6090   29.6960 C.3   310  PRO310      0.0237
    203  CD        79.2570    6.3490   28.8980 C.3   310  PRO310      0.0939
    204  N         82.1480    8.0160   27.8480 N.am  311  TYR311     -0.1974
    205  CA        83.4040    8.1100   27.1280 C.3   311  TYR311      0.1639
    206  C         83.9070    9.4920   26.7140 C.2   311  TYR311      0.2290
    207  O         85.0790    9.6240   26.3260 O.2   311  TYR311     -0.2864
    208  CB        83.3410    7.2270   25.8880 C.3   311  TYR311      0.0560
    209  CG        82.9470    5.7570   26.1040 C.ar  311  TYR311     -0.0198
    210  CD1       83.2470    5.0950   27.2920 C.ar  311  TYR311     -0.0009
    211  CD2       82.3130    5.0730   25.0750 C.ar  311  TYR311     -0.0009
    212  CE1       82.9210    3.7520   27.4450 C.ar  311  TYR311      0.0417
    213  CE2       81.9800    3.7300   25.2210 C.ar  311  TYR311      0.0417
    214  CZ        82.2960    3.0790   26.4070 C.ar  311  TYR311      0.1957
    215  OH        82.0460    1.7210   26.5250 O.3   311  TYR311     -0.2866
@<TRIPOS>BOND
     1   134   135    2
     2   134   133    1
     3   133   136    1
     4   133   132    1
     5   136   137    1
     6   132   138    1
     7   148   147    2
     8   151   150    1
     9   137   138    1
    10   155   154    1
    11   155   156    2
    12   149   150    1
    13   149   146    1
    14   147   146    1
    15   147   153   am
    16   154   153    1
    17   154   157    1
    18   150   152    1
    19   145   146    1
    20   145   141   am
    21   160   158    1
    22   140   139    1
    23   140   141    1
    24   140   143    1
    25   157   158    1
    26   141   142    2
    27   144   143    1
    28   158   159    1
    29   161   162    1
    30   112   111    2
    31   196   195    1
    32   162   163    1
    33   162   165    1
    34   163   164    2
    35   166   165    1
    36   113   114    1
    37   113   110    1
    38    14    12   ar
    39    14    13   ar
    40    12    10   ar
    41   167   165    1
    42   114   116   ar
    43   114   115   ar
    44   116   118   ar
    45   111   110    1
    46   195   193   ar
    47   195   194   ar
    48   115   117   ar
    49   193   191   ar
    50   118   119   ar
    51    13    11   ar
    52   110   109    1
    53   194   192   ar
    54   117   119   ar
    55    10     9   ar
    56    10     8   ar
    57   175   174    1
    58     9     7   ar
    59   168   169    1
    60   211   213   ar
    61   211   209   ar
    62   213   214   ar
    63   109   103   am
    64   191   190   ar
    65   192   190   ar
    66    11     8   ar
    67     8     6   ar
    68   173   174    1
    69   173   172    1
    70   190   189    1
    71     4     3    2
    72   208   209    1
    73   208   205    1
    74     7     6   ar
    75   209   210   ar
    76   169   172    1
    77   169   170    1
    78   207   206    2
    79     3     2    1
    80     6     5    1
    81   214   215    1
    82   214   212   ar
    83   101   102    1
    84   103   102    1
    85   103   104    2
    86   206   205    1
    87   189   186    1
    88   105   102    1
    89   105   106    1
    90   205   204    1
    91   107   106    1
    92   210   212   ar
    93   170   171    2
    94     5     2    1
    95   106   108    1
    96     2     1    1
    97   204   199   am
    98    76    74   ar
    99    76    75   ar
   100   128   126   ar
   101   128   130   ar
   102    23    22    2
   103   100    98    1
   104    74    72   ar
   105    18    17    2
   106   186   187    1
   107   186   185    1
   108    99    98    1
   109    43    45   ar
   110    43    41   ar
   111   131   130    1
   112    45    44   ar
   113    75    73   ar
   114   126   125   ar
   115   123   122    2
   116    22    21    1
   117   187   197   am
   118   187   188    2
   119   130   129   ar
   120   203   197    1
   121   203   202    1
   122    98    97    1
   123   122   121    1
   124   197   198    1
   125   185   178   am
   126    72    71   ar
   127    72    70   ar
   128   199   200    2
   129   199   198    1
   130    21    24    1
   131    21    20    1
   132    73    70   ar
   133    97    94    1
   134    41    40   ar
   135    41    39   ar
   136    26    28   ar
   137    26    25   ar
   138    17    20   am
   139    17    16    1
   140    71    69   ar
   141    40    38   ar
   142    44    42   ar
   143    28    30   ar
   144    70    68   ar
   145   202   201    1
   146    89    90    1
   147    89    88    1
   148    24    25    1
   149   198   201    1
   150   125   124    1
   151   125   127   ar
   152    19    16    1
   153    25    27   ar
   154    91    90    2
   155    94    95    1
   156    94    93    1
   157    90    92   am
   158   129   127   ar
   159    16    15    1
   160   178   179    2
   161   178   177    1
   162    69    68   ar
   163    88    85    1
   164   176   177    1
   165   121   124    1
   166   121   120    1
   167    68    67    1
   168    30    31    1
   169    30    29   ar
   170    95    96    2
   171    39    42   ar
   172    39    37   ar
   173    38    37   ar
   174    27    29   ar
   175   177   180    1
   176    37    36    1
   177    67    64    1
   178    62    61   ar
   179    62    60   ar
   180    87    86    2
   181    51    52    1
   182    51    50    1
   183    61    59   ar
   184    85    86    1
   185    85    84    1
   186   180   181    1
   187    60    58   ar
   188    52    46    1
   189    84    79   am
   190    50    47    1
   191    59    58   ar
   192    83    82    1
   193    83    77    1
   194    64    65    1
   195    64    63    1
   196    36    33    1
   197    82    81    1
   198    58    57    1
   199    56    55    2
   200    46    47    1
   201    46    34   am
   202    48    49    2
   203    48    47    1
   204   181   182    1
   205    77    65   am
   206    77    78    1
   207    65    66    2
   208    63    55   am
   209    79    78    1
   210    79    80    2
   211    55    54    1
   212    33    34    1
   213    33    32    1
   214    57    54    1
   215    34    35    2
   216   182   183   ar
   217   182   184   ar
   218    81    78    1
   219    54    53    1
