@<TRIPOS>MOLECULE
tmp/1froB00.pdb
 115 105 0 0 0
SMALL
GASTEIGER

@<TRIPOS>ATOM
      1  N         62.0460   29.0500   -7.3810 N.3    26  GLN26      -0.1245
      2  CA        62.7620   28.7000   -6.1800 C.3    26  GLN26       0.1566
      3  C         62.3610   29.5240   -4.9940 C.2    26  GLN26       0.2260
      4  O         61.7060   30.5500   -5.1380 O.2    26  GLN26      -0.2867
      5  CB        64.2420   29.0000   -6.4250 C.3    26  GLN26       0.0367
      6  CG        64.4520   30.4690   -6.7950 C.3    26  GLN26       0.0905
      7  CD        65.8890   30.8770   -6.9480 C.2    26  GLN26       0.2608
      8  OE1       66.4030   31.6560   -6.1540 O.2    26  GLN26      -0.2717
      9  NE2       66.5390   30.3860   -7.9880 N.am   26  GLN26      -0.0878
     10  N         64.7060   30.6550   -1.6570 N.3    28  MET28      -0.1245
     11  CA        66.0620   30.6280   -1.1500 C.3    28  MET28       0.1570
     12  C         66.0720   30.7300    0.3640 C.2    28  MET28       0.2261
     13  O         65.4070   31.5910    0.9340 O.2    28  MET28      -0.2867
     14  CB        66.8690   31.7680   -1.7650 C.3    28  MET28       0.0387
     15  CG        68.3710   31.7520   -1.4270 C.3    28  MET28       0.0595
     16  SD        68.7880   32.3710    0.2080 S.3    28  MET28      -0.1393
     17  CE        69.5940   33.8380   -0.2000 C.3    28  MET28       0.0692
     18  N         68.9260   30.4300    3.7250 N.3    30  ARG30      -0.1245
     19  CA        70.3350   30.3540    4.1060 C.3    30  ARG30       0.1563
     20  C         70.5040   29.2160    5.1280 C.2    30  ARG30       0.2260
     21  O         69.7260   29.1030    6.0810 O.2    30  ARG30      -0.2867
     22  CB        70.7940   31.6930    4.7060 C.3    30  ARG30       0.0307
     23  CG        70.8590   32.8320    3.7230 C.3    30  ARG30       0.0489
     24  CD        71.1640   34.1430    4.4360 C.3    30  ARG30       0.2205
     25  NE        71.2290   35.2780    3.5170 N.pl3  30  ARG30      -0.0865
     26  CZ        70.1990   36.0510    3.1730 C.cat  30  ARG30       0.5346
     27  NH1       69.0030   35.8160    3.6600 N.pl3  30  ARG30       0.1354
     28  NH2       70.3750   37.0860    2.3620 N.pl3  30  ARG30       0.1354
     29  N         76.5120   24.9520   -6.9450 N.3    53  CYS53      -0.1235
     30  CA        77.3070   26.0180   -7.5330 C.3    53  CYS53       0.1677
     31  C         78.1500   26.6290   -6.4380 C.2    53  CYS53       0.2270
     32  O         77.7000   26.7530   -5.3060 O.2    53  CYS53      -0.2867
     33  CB        76.3970   27.0920   -8.1550 C.3    53  CYS53       0.0956
     34  SG        75.3980   26.5250   -9.5720 S.3    53  CYS53      -0.0801
     35  N         80.8920   29.8910   -5.4530 N.3    55  PHE55      -0.1241
     36  CA        81.3680   31.2070   -5.8660 C.3    55  PHE55       0.1605
     37  C         82.4380   31.5670   -4.8520 C.2    55  PHE55       0.2264
     38  O         82.1850   32.2810   -3.8840 O.2    55  PHE55      -0.2867
     39  CB        80.2260   32.2300   -5.8440 C.3    55  PHE55       0.0534
     40  CG        79.0690   31.8650   -6.7380 C.ar   55  PHE55      -0.0203
     41  CD1       78.0500   31.0410   -6.2800 C.ar   55  PHE55      -0.0042
     42  CD2       79.0050   32.3320   -8.0420 C.ar   55  PHE55      -0.0042
     43  CE1       76.9910   30.6880   -7.1010 C.ar   55  PHE55      -0.0003
     44  CE2       77.9310   31.9750   -8.8800 C.ar   55  PHE55      -0.0003
     45  CZ        76.9310   31.1540   -8.4050 C.ar   55  PHE55      -0.0000
     46  N         83.1800   35.1500   -3.7810 N.3    58  MET58      -0.1245
     47  CA        82.1740   35.6350   -2.8420 C.3    58  MET58       0.1570
     48  C         82.0080   34.7540   -1.6070 C.2    58  MET58       0.2261
     49  O         81.3140   35.1280   -0.6610 O.2    58  MET58      -0.2867
     50  CB        80.8490   35.8510   -3.5610 C.3    58  MET58       0.0387
     51  CG        80.9240   36.9750   -4.5770 C.3    58  MET58       0.0595
     52  SD        79.9610   36.6320   -6.0660 S.3    58  MET58      -0.1393
     53  CE        78.4420   37.5870   -5.7190 C.3    58  MET58       0.0692
     54  N         80.5650   31.5940   -1.1400 N.3    60  PHE60      -0.1241
     55  CA        79.2740   30.9740   -0.9020 C.3    60  PHE60       0.1605
     56  C         78.9670   29.9210   -1.9470 C.2    60  PHE60       0.2264
     57  O         79.5380   29.9370   -3.0430 O.2    60  PHE60      -0.2867
     58  CB        78.1340   32.0110   -0.7690 C.3    60  PHE60       0.0534
     59  CG        77.6720   32.6070   -2.0690 C.ar   60  PHE60      -0.0203
     60  CD1       76.6980   31.9650   -2.8380 C.ar   60  PHE60      -0.0042
     61  CD2       78.1870   33.8240   -2.5150 C.ar   60  PHE60      -0.0042
     62  CE1       76.2420   32.5240   -4.0370 C.ar   60  PHE60      -0.0003
     63  CE2       77.7430   34.3900   -3.7060 C.ar   60  PHE60      -0.0003
     64  CZ        76.7680   33.7410   -4.4720 C.ar   60  PHE60      -0.0000
     65  N         75.6230   27.3820   -3.5470 N.3    62  LEU62      -0.1245
     66  CA        74.1890   27.2700   -3.7230 C.3    62  LEU62       0.1561
     67  C         73.9180   25.8040   -3.9870 C.2    62  LEU62       0.2260
     68  O         74.6030   25.1850   -4.7980 O.2    62  LEU62      -0.2867
     69  CB        73.7190   28.0750   -4.9370 C.3    62  LEU62       0.0270
     70  CG        73.9130   29.5870   -4.9500 C.3    62  LEU62       0.0019
     71  CD1       73.3370   30.1480   -6.2420 C.3    62  LEU62       0.0001
     72  CD2       73.2310   30.2100   -3.7490 C.3    62  LEU62       0.0001
     73  N         70.7590   23.2940   -5.0100 N.3    64  PHE64      -0.1241
     74  CA        69.3830   23.2710   -5.4810 C.3    64  PHE64       0.1605
     75  C         68.7920   21.9080   -5.2430 C.2    64  PHE64       0.2264
     76  O         69.3250   20.9050   -5.7090 O.2    64  PHE64      -0.2867
     77  CB        69.3060   23.6130   -6.9710 C.3    64  PHE64       0.0534
     78  CG        69.6330   25.0500   -7.2790 C.ar   64  PHE64      -0.0203
     79  CD1       70.9530   25.4570   -7.4350 C.ar   64  PHE64      -0.0042
     80  CD2       68.6160   25.9980   -7.4120 C.ar   64  PHE64      -0.0042
     81  CE1       71.2650   26.7840   -7.7190 C.ar   64  PHE64      -0.0003
     82  CE2       68.9230   27.3300   -7.6960 C.ar   64  PHE64      -0.0003
     83  CZ        70.2510   27.7200   -7.8500 C.ar   64  PHE64      -0.0000
     84  N         67.6210   25.1300  -13.3890 N.3    85  LEU85      -0.1245
     85  CA        67.0410   26.4380  -13.1810 C.3    85  LEU85       0.1561
     86  C         65.7170   26.6660  -13.8830 C.2    85  LEU85       0.2260
     87  O         65.1730   27.7700  -13.8370 O.2    85  LEU85      -0.2867
     88  CB        68.0510   27.5290  -13.5210 C.3    85  LEU85       0.0270
     89  CG        69.1670   27.6460  -12.4780 C.3    85  LEU85       0.0019
     90  CD1       70.2260   28.5490  -13.0020 C.3    85  LEU85       0.0001
     91  CD2       68.6370   28.1840  -11.1650 C.3    85  LEU85       0.0001
     92  N         66.5710   26.6500   -2.9700 N.3    92  GLU92      -0.1245
     93  CA        67.9230   27.1030   -3.2100 C.3    92  GLU92       0.1567
     94  C         68.5530   27.3790   -1.8540 C.2    92  GLU92       0.2260
     95  O         68.2730   28.4050   -1.2320 O.2    92  GLU92      -0.2867
     96  CB        67.9170   28.3770   -4.0550 C.3    92  GLU92       0.0388
     97  CG        69.2990   28.9910   -4.2740 C.3    92  GLU92       0.1160
     98  CD        69.2350   30.2500   -5.1150 C.2    92  GLU92       0.3649
     99  OE1       68.6710   31.2480   -4.6500 O.co2  92  GLU92      -0.2457
    100  OE2       69.7370   30.2630   -6.2520 O.co2  92  GLU92      -0.2457
    101  N         71.4700   28.4360    0.4490 N.3    94  THR94      -0.1218
    102  CA        72.6510   29.2550    0.3320 C.3    94  THR94       0.1862
    103  C         73.5760   29.0140    1.4940 C.2    94  THR94       0.2287
    104  O         73.1840   29.1930    2.6440 O.2    94  THR94      -0.2866
    105  CB        72.2580   30.7340    0.2780 C.3    94  THR94       0.1770
    106  OG1       71.4540   30.9400   -0.8830 O.3    94  THR94      -0.2211
    107  CG2       73.4930   31.6430    0.2040 C.3    94  THR94       0.0375
    108  N         76.9050   30.2040    3.2440 N.3    96  ASN96      -0.1240
    109  CA        77.9380   31.2220    3.3430 C.3    96  ASN96       0.1653
    110  C         79.0930   30.5030    4.0570 C.2    96  ASN96       0.2266
    111  O         78.9390   30.0160    5.1890 O.2    96  ASN96      -0.2867
    112  CB        77.4380   32.4240    4.1500 C.3    96  ASN96       0.1155
    113  CG        76.5150   33.3300    3.3450 C.2    96  ASN96       0.2627
    114  OD1       76.8840   33.8270    2.2830 O.2    96  ASN96      -0.2716
    115  ND2       75.3280   33.5750    3.8650 N.am   96  ASN96      -0.0877
@<TRIPOS>BOND
     1    86    87    2
     2    86    85    1
     3    88    85    1
     4    88    89    1
     5    84    85    1
     6    90    89    1
     7    89    91    1
     8    34    33    1
     9    44    45   ar
    10    44    42   ar
    11    45    43   ar
    12    33    30    1
    13    42    40   ar
    14     9     7   am
    15    83    81   ar
    16    83    82   ar
    17    81    79   ar
    18    82    80   ar
    19    30    29    1
    20    30    31    1
    21    79    78   ar
    22    80    78   ar
    23     1     2    1
    24    78    77    1
    25    43    41   ar
    26    77    74    1
    27     7     6    1
    28     7     8    2
    29     6     5    1
    30    40    41   ar
    31    40    39    1
    32    31    32    2
    33     5     2    1
    34   100    98   ar
    35    71    70    1
    36     2     3    1
    37    52    53    1
    38    52    51    1
    39    36    39    1
    40    36    35    1
    41    36    37    1
    42    76    75    2
    43    74    75    1
    44    74    73    1
    45     4     3    2
    46    98    99   ar
    47    98    97    1
    48    70    69    1
    49    70    72    1
    50    69    66    1
    51    37    38    2
    52    68    67    2
    53    51    50    1
    54    64    62   ar
    55    64    63   ar
    56    97    96    1
    57    96    93    1
    58    62    60   ar
    59    67    66    1
    60    46    47    1
    61    66    65    1
    62    63    61   ar
    63    50    47    1
    64    93    92    1
    65    93    94    1
    66    57    56    2
    67    47    48    1
    68    60    59   ar
    69    61    59   ar
    70    59    58    1
    71    56    55    1
    72    94    95    2
    73    14    15    1
    74    14    11    1
    75    10    11    1
    76    48    49    2
    77    15    16    1
    78    11    12    1
    79    54    55    1
    80    55    58    1
    81   106   105    1
    82    17    16    1
    83   107   105    1
    84   105   102    1
    85   102   101    1
    86   102   103    1
    87    12    13    2
    88   103   104    2
    89   114   113    2
    90    28    26    1
    91    26    25    2
    92    26    27    1
    93   108   109    1
    94   109   110    1
    95   109   112    1
    96   113   115   am
    97   113   112    1
    98    25    24    1
    99    23    24    1
   100    23    22    1
   101    18    19    1
   102   110   111    2
   103    19    22    1
   104    19    20    1
   105    20    21    2
