@<TRIPOS>MOLECULE
tmp/1frwA00.pdb
 146 139 0 0 0
SMALL
GASTEIGER

@<TRIPOS>ATOM
      1  N         14.0670   25.7070   11.7560 N.3    11  LEU11      -0.1231
      2  CA        13.3850   26.9830   11.8670 C.3    11  LEU11       0.1693
      3  C         14.4870   27.9790   12.3270 C.2    11  LEU11       0.2592
      4  O         14.8120   28.0520   13.5410 O.2    11  LEU11      -0.2718
      5  CB        12.2560   26.9420   12.8660 C.3    11  LEU11       0.0284
      6  CG        11.0620   26.0720   12.4100 C.3    11  LEU11       0.0019
      7  CD1       10.0360   25.8960   13.5410 C.3    11  LEU11       0.0001
      8  CD2       10.4020   26.6450   11.1900 C.3    11  LEU11       0.0001
      9  N         15.1120   28.6080   11.3410 N.am   12  ALA12      -0.1966
     10  CA        16.2500   29.4870   11.6190 C.3    12  ALA12       0.1728
     11  C         15.7270   30.8550   11.8330 C.2    12  ALA12       0.2617
     12  O         16.4300   31.6880   12.4320 O.2    12  ALA12      -0.2715
     13  CB        17.3020   29.4930   10.5000 C.3    12  ALA12       0.0334
     14  N         14.5430   31.1140   11.2870 N.am   13  GLY13      -0.1940
     15  CA        13.8270   32.3000   11.6890 C.3    13  GLY13       0.2014
     16  C         13.3940   33.6310   11.1470 C.2    13  GLY13       0.2639
     17  O         13.1000   33.8620    9.9780 O.2    13  GLY13      -0.2714
     18  N         13.3010   34.5180   12.1310 N.am   14  GLY14      -0.1939
     19  CA        12.8700   35.8660   11.9600 C.3    14  GLY14       0.2014
     20  C         13.3220   36.8730   10.9820 C.2    14  GLY14       0.2638
     21  O         14.4770   36.9900   10.5810 O.2    14  GLY14      -0.2714
     22  N         12.2310   37.5590   10.6540 N.am   15  LYS15      -0.1977
     23  CA        11.9990   38.7940    9.9370 C.3    15  LYS15       0.1596
     24  C         13.1910   39.6090    9.4240 C.2    15  LYS15       0.2287
     25  O         13.2030   40.0380    8.2510 O.2    15  LYS15      -0.2864
     26  CB        11.1680   39.6040   10.9460 C.3    15  LYS15       0.0298
     27  CG        10.2970   38.6530   11.8460 C.3    15  LYS15       0.0038
     28  CD        10.1470   39.1150   13.2770 C.3    15  LYS15       0.0206
     29  CE         9.2390   40.3220   13.3570 C.3    15  LYS15       0.1093
     30  NZ         8.9900   40.7000   14.7730 N.3    15  LYS15      -0.1314
     31  N         21.1700   34.2130   16.6810 N.3    18  LYS18      -0.1245
     32  CA        21.9660   33.6570   17.7940 C.3    18  LYS18       0.1561
     33  C         22.3600   32.2220   17.4410 C.2    18  LYS18       0.2260
     34  O         23.3850   31.6900   17.8710 O.2    18  LYS18      -0.2867
     35  CB        21.1930   33.6860   19.1230 C.3    18  LYS18       0.0271
     36  CG        20.0450   32.6970   19.2500 C.3    18  LYS18       0.0035
     37  CD        19.3440   32.8580   20.6140 C.3    18  LYS18       0.0206
     38  CE        18.1430   31.8990   20.7770 C.3    18  LYS18       0.1093
     39  NZ        16.9710   32.3580   19.9880 N.3    18  LYS18      -0.1314
     40  N         14.3670   27.0070    7.0380 N.3    46  ASN46      -0.1240
     41  CA        13.5170   28.1690    6.9030 C.3    46  ASN46       0.1653
     42  C         14.3300   29.3380    7.4940 C.2    46  ASN46       0.2266
     43  O         14.5840   29.3650    8.6580 O.2    46  ASN46      -0.2867
     44  CB        12.2320   27.9830    7.6640 C.3    46  ASN46       0.1155
     45  CG        11.3730   29.2210    7.7790 C.2    46  ASN46       0.2627
     46  OD1       10.8770   29.4800    8.9030 O.2    46  ASN46      -0.2716
     47  ND2       11.1540   30.0040    6.6670 N.am   46  ASN46      -0.0877
     48  N         15.2460   33.8060    6.7770 N.3    48  ASN48      -0.1240
     49  CA        14.9060   35.0450    6.1000 C.3    48  ASN48       0.1653
     50  C         16.0530   36.0750    6.1660 C.2    48  ASN48       0.2266
     51  O         15.8980   37.1850    5.6880 O.2    48  ASN48      -0.2867
     52  CB        13.6500   35.6130    6.6980 C.3    48  ASN48       0.1155
     53  CG        12.4370   34.7560    6.4080 C.2    48  ASN48       0.2627
     54  OD1       11.9280   34.7080    5.2890 O.2    48  ASN48      -0.2716
     55  ND2       11.9830   34.0690    7.4140 N.am   48  ASN48      -0.0877
     56  N         10.1880   32.9530    3.9520 N.3    64  ASP64      -0.1239
     57  CA         8.7910   33.1150    4.3240 C.3    64  ASP64       0.1674
     58  C          7.9510   33.6320    3.1910 C.2    64  ASP64       0.2266
     59  O          8.4270   34.3640    2.3280 O.2    64  ASP64      -0.2867
     60  CB         8.6110   34.1000    5.4700 C.3    64  ASP64       0.1410
     61  CG         8.8920   33.4910    6.8150 C.2    64  ASP64       0.3668
     62  OD1        9.4810   32.4330    6.8490 O.co2  64  ASP64      -0.2456
     63  OD2        8.5770   34.0200    7.8950 O.co2  64  ASP64      -0.2456
     64  N          3.2920   36.8560    7.4430 N.3    69  TYR69      -0.1228
     65  CA         2.6820   36.4180    8.6910 C.3    69  TYR69       0.1721
     66  C          3.7180   36.3720    9.8260 C.2    69  TYR69       0.2437
     67  O          4.9060   36.2670    9.5970 O.2    69  TYR69      -0.2733
     68  CB         2.0090   35.0590    8.4880 C.3    69  TYR69       0.0547
     69  CG         0.8260   35.0910    7.5630 C.ar   69  TYR69      -0.0200
     70  CD1        0.6950   34.1460    6.5570 C.ar   69  TYR69      -0.0009
     71  CD2       -0.1780   36.0470    7.6990 C.ar   69  TYR69      -0.0009
     72  CE1       -0.3890   34.1510    5.6830 C.ar   69  TYR69       0.0417
     73  CE2       -1.2650   36.0450    6.8450 C.ar   69  TYR69       0.0417
     74  CZ        -1.3620   35.0990    5.8360 C.ar   69  TYR69       0.1957
     75  OH        -2.4390   35.0960    4.9590 O.3    69  TYR69      -0.2866
     76  N          3.2620   36.4540   11.0520 N.am   70  PRO70      -0.2718
     77  CA         4.1580   36.4490   12.2100 C.3    70  PRO70       0.1535
     78  C          4.5330   35.0890   12.8090 C.2    70  PRO70       0.2599
     79  O          3.7260   34.1590   12.8710 O.2    70  PRO70      -0.2715
     80  CB         3.3320   37.1880   13.2730 C.3    70  PRO70       0.0310
     81  CG         1.9060   36.8190   12.9230 C.3    70  PRO70       0.0237
     82  CD         1.8500   36.6020   11.4250 C.3    70  PRO70       0.0939
     83  N          5.7510   35.0170   13.2990 N.am   71  GLY71      -0.1941
     84  CA         6.2090   33.9010   14.1180 C.3    71  GLY71       0.1999
     85  C          6.4730   32.5630   13.4720 C.2    71  GLY71       0.2485
     86  O          6.4560   32.4350   12.2880 O.2    71  GLY71      -0.2729
     87  N          6.7640   31.5670   14.2980 N.am   72  PRO72      -0.2651
     88  CA         7.1370   30.2510   13.7960 C.3    72  PRO72       0.1628
     89  C          6.0620   29.6130   12.9410 C.2    72  PRO72       0.2315
     90  O          6.4340   28.9000   11.9780 O.2    72  PRO72      -0.2861
     91  CB         7.4230   29.4260   15.0590 C.2    72  PRO72      -0.0016
     92  CG         7.1760   30.2780   16.2260 C.2    72  PRO72      -0.0072
     93  CD         6.7570   31.6300   15.7660 C.3    72  PRO72       0.1203
     94  N          4.3340   31.0140   10.7690 N.3    74  ALA74      -0.1231
     95  CA         4.5850   31.5590    9.4280 C.3    74  ALA74       0.1694
     96  C          5.6080   30.7510    8.6480 C.2    74  ALA74       0.2592
     97  O          5.4690   30.5230    7.4140 O.2    74  ALA74      -0.2718
     98  CB         5.0320   33.0600    9.5120 C.3    74  ALA74       0.0304
     99  N          6.6640   30.3340    9.3230 N.am   75  GLY75      -0.1957
    100  CA         7.6990   29.5430    8.6990 C.3    75  GLY75       0.1869
    101  C          7.1230   28.1710    8.3510 C.2    75  GLY75       0.2309
    102  O          7.4300   27.6310    7.2750 O.2    75  GLY75      -0.2863
    103  N         13.4550   24.3740   16.0450 N.3    92  PRO92      -0.2102
    104  CA        14.1920   25.6350   16.0960 C.3    92  PRO92       0.1504
    105  C         15.7060   25.4690   16.1380 C.2    92  PRO92       0.2576
    106  O         16.2240   24.4430   16.5590 O.2    92  PRO92      -0.2718
    107  CB        13.6610   26.3130   17.3640 C.3    92  PRO92       0.0282
    108  CG        13.1130   25.2640   18.1830 C.3    92  PRO92       0.0208
    109  CD        12.6410   24.1370   17.2510 C.3    92  PRO92       0.0893
    110  N         16.3900   26.5310   15.7310 N.am   93  CYS93      -0.1957
    111  CA        17.8320   26.5110   15.5740 C.3    93  CYS93       0.1843
    112  C         18.5990   26.4920   16.8640 C.2    93  CYS93       0.2625
    113  O         19.7860   26.2720   16.7960 O.2    93  CYS93      -0.2714
    114  CB        18.2730   27.7770   14.8430 C.3    93  CYS93       0.0997
    115  SG        18.2870   29.2100   15.9580 S.3    93  CYS93      -0.0797
    116  N         17.9840   26.6100   18.0120 N.am   94  ASP94      -0.1971
    117  CA        18.7290   26.7180   19.2760 C.3    94  ASP94       0.1709
    118  C         18.5240   25.5840   20.2700 C.2    94  ASP94       0.2293
    119  O         18.7110   25.7640   21.4810 O.2    94  ASP94      -0.2864
    120  CB        18.3580   28.0760   19.9080 C.3    94  ASP94       0.1436
    121  CG        16.9330   28.1690   20.2990 C.2    94  ASP94       0.3671
    122  OD1       16.1090   27.2580   20.0420 O.co2  94  ASP94      -0.2456
    123  OD2       16.5110   29.1810   20.8670 O.co2  94  ASP94      -0.2456
    124  N          7.2110   24.1650   18.8280 N.3   127  THR127     -0.1218
    125  CA         7.8880   24.2840   17.5530 C.3   127  THR127      0.1862
    126  C          8.7900   23.1470   17.2430 C.2   127  THR127      0.2287
    127  O          9.4080   23.1790   16.1840 O.2   127  THR127     -0.2866
    128  CB         8.6590   25.5780   17.3900 C.3   127  THR127      0.1770
    129  OG1        9.6300   25.6740   18.4050 O.3   127  THR127     -0.2211
    130  CG2        7.7620   26.7790   17.5490 C.3   127  THR127      0.0375
    131  N         17.2640   24.7790   25.5650 N.3   173  ASN173     -0.1240
    132  CA        17.3070   25.7800   24.5270 C.3   173  ASN173      0.1653
    133  C         18.3380   26.8160   24.9120 C.2   173  ASN173      0.2266
    134  O         18.3480   27.3040   26.0490 O.2   173  ASN173     -0.2867
    135  CB        15.9890   26.3930   24.1660 C.3   173  ASN173      0.1155
    136  CG        15.3350   27.0230   25.2720 C.2   173  ASN173      0.2627
    137  OD1       15.9430   27.7910   26.0000 O.2   173  ASN173     -0.2716
    138  ND2       14.0330   26.7630   25.4070 N.am  173  ASN173     -0.0877
    139  N         19.2570   30.1430   24.8620 N.3   175  ASN175     -0.1240
    140  CA        18.5880   31.4150   24.7260 C.3   175  ASN175      0.1653
    141  C         19.5740   32.5490   24.4670 C.2   175  ASN175      0.2266
    142  O         19.2780   33.5080   23.7410 O.2   175  ASN175     -0.2867
    143  CB        17.9000   31.7160   26.0530 C.3   175  ASN175      0.1155
    144  CG        16.8070   30.7310   26.3940 C.2   175  ASN175      0.2627
    145  OD1       15.6890   30.8300   25.8660 O.2   175  ASN175     -0.2716
    146  ND2       17.1040   29.7880   27.3050 N.am  175  ASN175     -0.0877
@<TRIPOS>BOND
     1    59    58    2
     2    58    57    1
     3    56    57    1
     4    57    60    1
     5    75    74    1
     6    54    53    2
     7    60    61    1
     8    72    74   ar
     9    72    70   ar
    10    51    50    2
    11    74    73   ar
    12    49    50    1
    13    49    52    1
    14    49    48    1
    15    53    52    1
    16    53    55   am
    17    70    69   ar
    18    47    45   am
    19    61    62   ar
    20    61    63   ar
    21    73    71   ar
    22    41    40    1
    23    41    42    1
    24    41    44    1
    25   102   101    2
    26    97    96    2
    27    64    65    1
    28    42    43    2
    29    69    71   ar
    30    69    68    1
    31    44    45    1
    32    45    46    2
    33    25    24    2
    34   101   100    1
    35    68    65    1
    36    96    99   am
    37    96    95    1
    38    65    66    1
    39   100    99    1
    40    24    23    1
    41    95    98    1
    42    95    94    1
    43    67    66    2
    44    66    76   am
    45    23    22    1
    46    23    26    1
    47    17    16    2
    48    13    10    1
    49    21    20    2
    50    22    20   am
    51    26    27    1
    52    20    19    1
    53    76    82    1
    54    76    77    1
    55    16    15    1
    56    16    18   am
    57     8     6    1
    58    14    15    1
    59    14    11   am
    60     9    10    1
    61     9     3   am
    62    82    81    1
    63    10    11    1
    64     1     2    1
    65    11    12    2
    66    27    28    1
    67     2     3    1
    68     2     5    1
    69    19    18    1
    70    90    89    2
    71    77    78    1
    72    77    80    1
    73    86    85    2
    74     3     4    2
    75     6     5    1
    76     6     7    1
    77    78    79    2
    78    78    83   am
    79    81    80    1
    80    89    88    1
    81    28    29    1
    82    83    84    1
    83    29    30    1
    84    85    84    1
    85    85    87   am
    86    88    87    1
    87    88    91    1
    88    87    93    1
    89   114   111    1
    90   114   115    1
    91    91    92    2
    92   111   110    1
    93   111   112    1
    94   110   105   am
    95    93    92    1
    96   103   104    1
    97   103   109    1
    98   104   105    1
    99   104   107    1
   100   105   106    2
   101   127   126    2
   102    31    32    1
   103   113   112    2
   104   112   116   am
   105   126   125    1
   106   109   108    1
   107   107   108    1
   108   128   130    1
   109   128   125    1
   110   128   129    1
   111    33    32    1
   112    33    34    2
   113   125   124    1
   114    32    35    1
   115   116   117    1
   116    35    36    1
   117    36    37    1
   118   117   120    1
   119   117   118    1
   120   120   121    1
   121    39    38    1
   122   122   121   ar
   123   118   119    2
   124   121   123   ar
   125    37    38    1
   126   142   141    2
   127   135   132    1
   128   135   136    1
   129   141   140    1
   130   132   133    1
   131   132   131    1
   132   140   139    1
   133   140   143    1
   134   133   134    2
   135   136   138   am
   136   136   137    2
   137   145   144    2
   138   143   144    1
   139   144   146   am
