@<TRIPOS>MOLECULE
tmp/1fs4A00.pdb
 150 142 0 0 0
SMALL
GASTEIGER

@<TRIPOS>ATOM
      1  N         29.1410   23.7070   30.2100 N.3   123  GLY123     -0.1210
      2  CA        29.3330   22.4130   29.5730 C.3   123  GLY123      0.1956
      3  C         30.0020   21.3200   30.3680 C.2   123  GLY123      0.2611
      4  O         29.4700   20.2180   30.5040 O.2   123  GLY123     -0.2717
      5  N         31.1870   21.6260   30.8830 N.am  124  LEU124     -0.1979
      6  CA        31.9560   20.6800   31.6790 C.3   124  LEU124      0.1596
      7  C         31.1540   20.1600   32.8880 C.2   124  LEU124      0.2287
      8  O         31.1430   18.9590   33.1680 O.2   124  LEU124     -0.2864
      9  CB        33.2530   21.3590   32.1310 C.3   124  LEU124      0.0297
     10  CG        34.2150   20.6430   33.0770 C.3   124  LEU124      0.0022
     11  CD1       35.6390   21.1310   32.8630 C.3   124  LEU124      0.0001
     12  CD2       33.7950   20.9380   34.4950 C.3   124  LEU124      0.0001
     13  N         28.1870   18.0050   31.6900 N.3   127  LEU127     -0.1245
     14  CA        28.6340   16.7400   31.1080 C.3   127  LEU127      0.1561
     15  C         28.7320   15.7200   32.2390 C.2   127  LEU127      0.2260
     16  O         28.2500   14.5860   32.1270 O.2   127  LEU127     -0.2867
     17  CB        29.9920   16.9000   30.4290 C.3   127  LEU127      0.0270
     18  CG        30.4150   15.6580   29.6450 C.3   127  LEU127      0.0019
     19  CD1       29.6940   15.6310   28.3010 C.3   127  LEU127      0.0001
     20  CD2       31.9330   15.6480   29.4790 C.3   127  LEU127      0.0001
     21  N         34.1460   30.1320   33.1730 N.3   271  ASP271     -0.1225
     22  CA        33.9120   29.1130   32.1570 C.3   271  ASP271      0.1805
     23  C         35.0710   29.2620   31.1730 C.2   271  ASP271      0.2597
     24  O         35.2940   30.3420   30.6350 O.2   271  ASP271     -0.2718
     25  CB        32.5690   29.3440   31.4440 C.3   271  ASP271      0.1424
     26  CG        32.2200   28.2270   30.4590 C.2   271  ASP271      0.3668
     27  OD1       31.6000   27.2170   30.8610 O.co2 271  ASP271     -0.2456
     28  OD2       32.5600   28.3650   29.2700 O.co2 271  ASP271     -0.2456
     29  N         35.8360   28.1990   30.9600 N.am  272  ASN272     -0.1974
     30  CA        36.9590   28.2660   30.0290 C.3   272  ASN272      0.1688
     31  C         37.9090   29.4210   30.3120 C.2   272  ASN272      0.2292
     32  O         38.2690   30.1700   29.4050 O.2   272  ASN272     -0.2864
     33  CB        36.4520   28.4100   28.5980 C.3   272  ASN272      0.1181
     34  CG        36.4050   27.0960   27.8610 C.2   272  ASN272      0.2629
     35  OD1       35.6010   26.9190   26.9580 O.2   272  ASN272     -0.2716
     36  ND2       37.2540   26.1670   28.2490 N.am  272  ASN272     -0.0877
     37  N         39.0790   17.0650   33.2220 N.3   327  ASP327     -0.1239
     38  CA        39.9570   18.2010   32.9500 C.3   327  ASP327      0.1674
     39  C         41.1210   18.1410   33.9250 C.2   327  ASP327      0.2266
     40  O         41.3450   17.1060   34.5450 O.2   327  ASP327     -0.2867
     41  CB        39.2150   19.5230   33.0890 C.3   327  ASP327      0.1410
     42  CG        39.7680   20.5940   32.1810 C.2   327  ASP327      0.3668
     43  OD1       39.0530   21.5760   31.9240 O.co2 327  ASP327     -0.2456
     44  OD2       40.9090   20.4700   31.7210 O.co2 327  ASP327     -0.2456
     45  N         41.4870   20.0360   36.6690 N.3   329  HIS329     -0.1241
     46  CA        41.1160   20.5070   38.0070 C.3   329  HIS329      0.1621
     47  C         41.5010   19.5560   39.1320 C.2   329  HIS329      0.2264
     48  O         41.9620   20.0030   40.1830 O.2   329  HIS329     -0.2867
     49  CB        39.6320   20.8260   38.0380 C.3   329  HIS329      0.0745
     50  CG        39.2190   21.7590   36.9490 C.ar  329  HIS329      0.0817
     51  ND1       37.9340   21.8130   36.4510 N.ar  329  HIS329     -0.2268
     52  CD2       39.9400   22.6420   36.2160 C.ar  329  HIS329      0.1154
     53  CE1       37.8810   22.6900   35.4640 C.ar  329  HIS329      0.1986
     54  NE2       39.0850   23.2070   35.2980 N.ar  329  HIS329     -0.2212
     55  N         39.2610   19.3400   27.7660 N.3   365  HIS365     -0.1226
     56  CA        38.0520   19.9800   27.2780 C.3   365  HIS365      0.1752
     57  C         38.2170   21.2770   26.5080 C.2   365  HIS365      0.2596
     58  O         37.2250   21.8420   26.0610 O.2   365  HIS365     -0.2718
     59  CB        37.0970   20.2510   28.4440 C.3   365  HIS365      0.0759
     60  CG        36.6610   19.0120   29.1660 C.ar  365  HIS365      0.0818
     61  ND1       35.4430   18.4150   28.9420 N.ar  365  HIS365     -0.2268
     62  CD2       37.2590   18.2980   30.1480 C.ar  365  HIS365      0.1154
     63  CE1       35.3070   17.3770   29.7460 C.ar  365  HIS365      0.1986
     64  NE2       36.3980   17.2840   30.4930 N.ar  365  HIS365     -0.2212
     65  N         39.4370   21.7720   26.3590 N.am  366  THR366     -0.1953
     66  CA        39.6200   23.0180   25.6200 C.3   366  THR366      0.1897
     67  C         41.0500   23.1860   25.1460 C.2   366  THR366      0.2313
     68  O         41.9620   22.5740   25.6930 O.2   366  THR366     -0.2863
     69  CB        39.2440   24.2510   26.4780 C.3   366  THR366      0.1794
     70  OG1       39.4470   25.4540   25.7270 O.3   366  THR366     -0.2208
     71  CG2       40.1000   24.2990   27.7300 C.3   366  THR366      0.0378
     72  N         42.5770   29.1830   29.2250 N.3   371  ALA371     -0.1245
     73  CA        41.8050   28.2170   30.0040 C.3   371  ALA371      0.1562
     74  C         42.7270   27.1490   30.6180 C.2   371  ALA371      0.2260
     75  O         42.3280   26.4000   31.5060 O.2   371  ALA371     -0.2867
     76  CB        40.7440   27.5600   29.1170 C.3   371  ALA371      0.0290
     77  N         37.0460   15.5900   23.3980 N.3   443  VAL443     -0.1245
     78  CA        35.6050   15.4460   23.5510 C.3   443  VAL443      0.1561
     79  C         34.7790   15.5150   22.2590 C.2   443  VAL443      0.2260
     80  O         33.5460   15.5450   22.2870 O.2   443  VAL443     -0.2867
     81  CB        35.0920   16.4800   24.5970 C.3   443  VAL443      0.0252
     82  CG1       35.5790   16.0850   26.0030 C.3   443  VAL443      0.0019
     83  CG2       35.5890   17.8780   24.2420 C.3   443  VAL443      0.0019
     84  N         31.3510   13.7090   23.1520 N.3   472  ASN472     -0.1240
     85  CA        30.3860   13.9760   24.1950 C.3   472  ASN472      0.1653
     86  C         28.9910   13.5410   23.7900 C.2   472  ASN472      0.2266
     87  O         28.7150   13.2470   22.6280 O.2   472  ASN472     -0.2867
     88  CB        30.3730   15.4700   24.5080 C.3   472  ASN472      0.1155
     89  CG        31.5670   15.9100   25.3420 C.2   472  ASN472      0.2627
     90  OD1       31.7730   17.1060   25.5430 O.2   472  ASN472     -0.2716
     91  ND2       32.3570   14.9480   25.8310 N.am  472  ASN472     -0.0877
     92  N         34.6970   33.7020   22.0050 N.3   561  TYR561     -0.1227
     93  CA        34.8020   32.6130   21.0420 C.3   561  TYR561      0.1736
     94  C         33.4370   32.0450   20.6260 C.2   561  TYR561      0.2595
     95  O         33.2830   31.5110   19.5260 O.2   561  TYR561     -0.2718
     96  CB        35.7370   31.5110   21.5910 C.3   561  TYR561      0.0548
     97  CG        35.1260   30.4090   22.4560 C.ar  561  TYR561     -0.0200
     98  CD1       34.5740   29.2690   21.8790 C.ar  561  TYR561     -0.0009
     99  CD2       35.1600   30.4820   23.8540 C.ar  561  TYR561     -0.0009
    100  CE1       34.0730   28.2330   22.6610 C.ar  561  TYR561      0.0417
    101  CE2       34.6570   29.4390   24.6500 C.ar  561  TYR561      0.0417
    102  CZ        34.1140   28.3260   24.0430 C.ar  561  TYR561      0.1957
    103  OH        33.5900   27.3090   24.8050 O.3   561  TYR561     -0.2866
    104  N         32.4370   32.1780   21.4920 N.am  562  LYS562     -0.1980
    105  CA        31.1060   31.6760   21.1720 C.3   562  LYS562      0.1596
    106  C         30.4510   32.5940   20.1380 C.2   562  LYS562      0.2287
    107  O         29.4980   32.2010   19.4660 O.2   562  LYS562     -0.2864
    108  CB        30.2390   31.5980   22.4400 C.3   562  LYS562      0.0298
    109  CG        30.8840   30.8720   23.6180 C.3   562  LYS562      0.0038
    110  CD        30.4180   29.4260   23.7360 C.3   562  LYS562      0.0206
    111  CE        30.3910   28.9440   25.1870 C.3   562  LYS562      0.1093
    112  NZ        30.4760   27.4630   25.2860 N.3   562  LYS562     -0.1314
    113  N         37.5890   26.3880   18.0690 N.3   659  THR659     -0.1203
    114  CA        37.5690   26.8790   19.4420 C.3   659  THR659      0.1994
    115  C         36.6250   26.1780   20.4210 C.2   659  THR659      0.2618
    116  O         36.9270   26.1000   21.6110 O.2   659  THR659     -0.2717
    117  CB        37.2890   28.3950   19.4730 C.3   659  THR659      0.1784
    118  OG1       35.9190   28.6520   19.1520 O.3   659  THR659     -0.2211
    119  CG2       38.1560   29.0930   18.4660 C.3   659  THR659      0.0376
    120  N         35.4910   25.6730   19.9410 N.am  660  GLU660     -0.1965
    121  CA        34.5380   24.9790   20.8120 C.3   660  GLU660      0.1733
    122  C         34.9010   23.5010   20.7660 C.2   660  GLU660      0.2616
    123  O         34.6490   22.8370   19.7770 O.2   660  GLU660     -0.2715
    124  CB        33.1040   25.1910   20.3070 C.3   660  GLU660      0.0429
    125  CG        31.9960   24.6960   21.2430 C.3   660  GLU660      0.1163
    126  CD        31.8230   25.5580   22.5070 C.2   660  GLU660      0.3649
    127  OE1       32.4500   25.2470   23.5490 O.co2 660  GLU660     -0.2457
    128  OE2       31.0490   26.5430   22.4700 O.co2 660  GLU660     -0.2457
    129  N         35.5080   22.9930   21.8320 N.am  661  ALA661     -0.1963
    130  CA        35.9370   21.5930   21.8960 C.3   661  ALA661      0.1728
    131  C         34.9100   20.6110   21.3760 C.2   661  ALA661      0.2617
    132  O         35.2280   19.7330   20.5670 O.2   661  ALA661     -0.2715
    133  CB        36.3150   21.2200   23.3180 C.3   661  ALA661      0.0334
    134  N         33.6810   20.7480   21.8580 N.am  662  SER662     -0.1936
    135  CA        32.5990   19.8660   21.4420 C.3   662  SER662      0.2055
    136  C         31.2680   20.5900   21.4430 C.2   662  SER662      0.2644
    137  O         30.6510   20.7950   20.3950 O.2   662  SER662     -0.2714
    138  CB        32.4980   18.6530   22.3770 C.3   662  SER662      0.2130
    139  OG        31.2530   17.9840   22.2210 O.3   662  SER662     -0.2179
    140  N         30.8450   20.9960   22.6340 N.am  663  GLY663     -0.1939
    141  CA        29.5520   21.6230   22.7810 C.3   663  GLY663      0.2014
    142  C         28.5910   20.4860   23.0790 C.2   663  GLY663      0.2639
    143  O         28.8460   19.3320   22.7200 O.2   663  GLY663     -0.2714
    144  N         27.4970   20.7900   23.7680 N.am  664  THR664     -0.1950
    145  CA        26.4960   19.7720   24.0940 C.3   664  THR664      0.1897
    146  C         25.1000   20.3580   23.9600 C.2   664  THR664      0.2313
    147  O         24.1140   19.6340   23.8110 O.2   664  THR664     -0.2863
    148  CB        26.6790   19.2410   25.5110 C.3   664  THR664      0.1794
    149  OG1       26.9490   20.3420   26.3860 O.3   664  THR664     -0.2208
    150  CG2       27.8390   18.2430   25.5620 C.3   664  THR664      0.0378
@<TRIPOS>BOND
     1   113   114    1
     2   119   117    1
     3   118   117    1
     4   114   117    1
     5   114   115    1
     6   107   106    2
     7    95    94    2
     8   123   122    2
     9   120   115   am
    10   120   121    1
    11   106   105    1
    12   124   121    1
    13   124   125    1
    14   137   136    2
    15   115   116    2
    16   132   131    2
    17    94    93    1
    18    94   104   am
    19   122   121    1
    20   122   129   am
    21    93    96    1
    22    93    92    1
    23   105   104    1
    24   105   108    1
    25   125   126    1
    26   131   134   am
    27   131   130    1
    28   135   136    1
    29   135   134    1
    30   135   138    1
    31   136   140   am
    32    96    97    1
    33   129   130    1
    34    98    97   ar
    35    98   100   ar
    36   130   133    1
    37   139   138    1
    38    79    80    2
    39    79    78    1
    40   108   109    1
    41    97    99   ar
    42   128   126   ar
    43   126   127   ar
    44    87    86    2
    45   140   141    1
    46   100   102   ar
    47   143   142    2
    48   141   142    1
    49   142   144   am
    50    84    85    1
    51    77    78    1
    52    78    81    1
    53   109   110    1
    54   110   111    1
    55   144   145    1
    56    86    85    1
    57   147   146    2
    58    99   101   ar
    59   146   145    1
    60   102   101   ar
    61   102   103    1
    62   145   148    1
    63    85    88    1
    64    83    81    1
    65    88    89    1
    66    81    82    1
    67    67    66    1
    68    67    68    2
    69   111   112    1
    70    89    90    2
    71    89    91   am
    72   148   150    1
    73   148   149    1
    74    66    65    1
    75    66    69    1
    76    70    69    1
    77    58    57    2
    78    65    57   am
    79    69    71    1
    80    57    56    1
    81    35    34    2
    82    56    55    1
    83    56    59    1
    84    34    36   am
    85    34    33    1
    86    19    18    1
    87    59    60    1
    88    33    30    1
    89    61    60   ar
    90    61    63   ar
    91    76    73    1
    92    60    62   ar
    93    72    73    1
    94    28    26   ar
    95    32    31    2
    96    20    18    1
    97     2     1    1
    98     2     3    1
    99    18    17    1
   100    63    64   ar
   101    73    74    1
   102    30    31    1
   103    30    29    1
   104    62    64   ar
   105     3     4    2
   106     3     5   am
   107    17    14    1
   108    26    27   ar
   109    26    25    1
   110    74    75    2
   111    24    23    2
   112     5     6    1
   113    29    23   am
   114    14    13    1
   115    14    15    1
   116    23    22    1
   117    25    22    1
   118     6     9    1
   119     6     7    1
   120    44    42   ar
   121    43    42   ar
   122    16    15    2
   123     9    10    1
   124    22    21    1
   125    42    41    1
   126    11    10    1
   127     7     8    2
   128    38    41    1
   129    38    37    1
   130    38    39    1
   131    10    12    1
   132    39    40    2
   133    54    53   ar
   134    54    52   ar
   135    53    51   ar
   136    52    50   ar
   137    51    50   ar
   138    45    46    1
   139    50    49    1
   140    46    49    1
   141    46    47    1
   142    47    48    2
