@<TRIPOS>MOLECULE
tmp/1fs5A01.pdb
 137 134 0 0 0
SMALL
GASTEIGER

@<TRIPOS>ATOM
      1  N         22.2500  -10.9210   19.1650 N.3    40  PRO40      -0.2102
      2  CA        22.6480  -10.0910   20.3010 C.3    40  PRO40       0.1504
      3  C         24.0330  -10.5000   20.8020 C.2    40  PRO40       0.2576
      4  O         24.6170  -11.4650   20.3140 O.2    40  PRO40      -0.2718
      5  CB        21.5930  -10.4350   21.3240 C.3    40  PRO40       0.0282
      6  CG        21.5500  -11.9530   21.1700 C.3    40  PRO40       0.0208
      7  CD        21.6490  -12.1790   19.6510 C.3    40  PRO40       0.0893
      8  N         24.5450   -9.7620   21.7790 N.am   41  THR41      -0.1939
      9  CA        25.8310  -10.0830   22.3900 C.3    41  THR41       0.2028
     10  C         25.5860  -10.1250   23.8910 C.2    41  THR41       0.2643
     11  O         24.4430  -10.0370   24.3390 O.2    41  THR41      -0.2714
     12  CB        26.9070   -9.0150   22.1060 C.3    41  THR41       0.1808
     13  OG1       26.5280   -7.7760   22.7170 O.3    41  THR41      -0.2208
     14  CG2       27.0830   -8.8140   20.6080 C.3    41  THR41       0.0379
     15  N         26.6540  -10.2580   24.6650 N.am   42  GLY42      -0.1939
     16  CA        26.5120  -10.2910   26.1060 C.3    42  GLY42       0.2014
     17  C         26.7130  -11.6670   26.7050 C.2    42  GLY42       0.2639
     18  O         26.9740  -12.6420   25.9990 O.2    42  GLY42      -0.2714
     19  N         26.5800  -11.7450   28.0220 N.am   43  GLY43      -0.1939
     20  CA        26.7510  -13.0110   28.7030 C.3    43  GLY43       0.2014
     21  C         25.5880  -13.9710   28.5230 C.2    43  GLY43       0.2640
     22  O         25.7720  -15.1830   28.5960 O.2    43  GLY43      -0.2714
     23  N         24.3950  -13.4380   28.2730 N.am   44  THR44      -0.1937
     24  CA        23.2070  -14.2710   28.1220 C.3    44  THR44       0.2013
     25  C         23.2060  -15.2700   26.9660 C.2    44  THR44       0.2484
     26  O         22.8930  -16.4360   27.1630 O.2    44  THR44      -0.2729
     27  CB        21.9260  -13.4110   28.0060 C.3    44  THR44       0.1807
     28  OG1       21.8290  -12.5410   29.1420 O.3    44  THR44      -0.2208
     29  CG2       20.6880  -14.3030   27.9600 C.3    44  THR44       0.0379
     30  N         23.5610  -14.8300   25.7460 N.am   45  PRO45      -0.2726
     31  CA        23.5690  -15.7440   24.5960 C.3    45  PRO45       0.1402
     32  C         24.7540  -16.7040   24.4930 C.2    45  PRO45       0.2269
     33  O         24.8330  -17.4910   23.5520 O.2    45  PRO45      -0.2865
     34  CB        23.5120  -14.7880   23.4090 C.3    45  PRO45       0.0296
     35  CG        24.3460  -13.6440   23.8910 C.3    45  PRO45       0.0237
     36  CD        23.8570  -13.4500   25.3190 C.3    45  PRO45       0.0939
     37  N         31.2750   -5.1690   20.1330 N.3    85  TYR85      -0.1241
     38  CA        30.3720   -6.2550   19.7870 C.3    85  TYR85       0.1605
     39  C         30.8360   -6.9640   18.5260 C.2    85  TYR85       0.2264
     40  O         30.5040   -8.1260   18.2910 O.2    85  TYR85      -0.2867
     41  CB        28.9390   -5.7270   19.6730 C.3    85  TYR85       0.0534
     42  CG        28.3630   -5.3730   21.0350 C.ar   85  TYR85      -0.0201
     43  CD1       29.0650   -5.6780   22.2060 C.ar   85  TYR85      -0.0009
     44  CD2       27.1130   -4.7670   21.1610 C.ar   85  TYR85      -0.0009
     45  CE1       28.5400   -5.3970   23.4600 C.ar   85  TYR85       0.0417
     46  CE2       26.5790   -4.4810   22.4190 C.ar   85  TYR85       0.0417
     47  CZ        27.2970   -4.8010   23.5610 C.ar   85  TYR85       0.1957
     48  OH        26.7690   -4.5500   24.8090 O.3    85  TYR85      -0.2866
     49  N         18.2200  -10.3060   24.2400 N.3   137  GLY137     -0.1210
     50  CA        18.1780  -10.5400   25.6670 C.3   137  GLY137      0.1956
     51  C         17.3690   -9.4100   26.2610 C.2   137  GLY137      0.2612
     52  O         16.6570   -8.7100   25.5330 O.2   137  GLY137     -0.2717
     53  N         17.4590   -9.2260   27.5720 N.am  138  VAL138     -0.1965
     54  CA        16.7320   -8.1400   28.2190 C.3   138  VAL138      0.1727
     55  C         17.6050   -7.5360   29.3170 C.2   138  VAL138      0.2617
     56  O         18.3080   -8.2570   30.0160 O.2   138  VAL138     -0.2715
     57  CB        15.3880   -8.6350   28.8080 C.3   138  VAL138      0.0290
     58  CG1       15.6280   -9.7150   29.8590 C.3   138  VAL138      0.0023
     59  CG2       14.6140   -7.4580   29.4020 C.3   138  VAL138      0.0023
     60  N         17.5790   -6.2140   29.4410 N.am  139  GLY139     -0.1940
     61  CA        18.3790   -5.5470   30.4600 C.3   139  GLY139      0.2014
     62  C         17.7750   -5.6520   31.8500 C.2   139  GLY139      0.2638
     63  O         16.6030   -6.0080   31.9940 O.2   139  GLY139     -0.2714
     64  N         18.5710   -5.3530   32.8760 N.am  140  ASN140     -0.1972
     65  CA        18.0860   -5.4020   34.2560 C.3   140  ASN140      0.1688
     66  C         16.9080   -4.4490   34.4090 C.2   140  ASN140      0.2292
     67  O         15.9910   -4.7010   35.1960 O.2   140  ASN140     -0.2864
     68  CB        19.1750   -4.9670   35.2520 C.3   140  ASN140      0.1181
     69  CG        20.3130   -5.9650   35.3680 C.2   140  ASN140      0.2629
     70  OD1       20.2330   -7.0850   34.8680 O.2   140  ASN140     -0.2716
     71  ND2       21.3810   -5.5590   36.0520 N.am  140  ASN140     -0.0877
     72  N         15.4080   -3.0380   29.1670 N.3   143  HIS143     -0.1241
     73  CA        15.6380   -2.6230   27.7950 C.3   143  HIS143      0.1621
     74  C         15.7990   -3.7930   26.8350 C.2   143  HIS143      0.2264
     75  O         16.2380   -4.8770   27.2170 O.2   143  HIS143     -0.2867
     76  CB        16.8450   -1.6660   27.6780 C.3   143  HIS143      0.0745
     77  CG        18.1830   -2.3030   27.8930 C.ar  143  HIS143      0.0817
     78  ND1       18.5010   -3.5650   27.4340 N.ar  143  HIS143     -0.2268
     79  CD2       19.3170   -1.8190   28.4550 C.ar  143  HIS143      0.1154
     80  CE1       19.7660   -3.8280   27.7030 C.ar  143  HIS143      0.1986
     81  NE2       20.2850   -2.7830   28.3230 N.ar  143  HIS143     -0.2212
     82  N         17.6310   -4.4970   23.3060 N.3   145  ALA145     -0.1231
     83  CA        18.7270   -3.8790   22.5600 C.3   145  ALA145      0.1694
     84  C         19.1620   -2.7240   23.4730 C.2   145  ALA145      0.2592
     85  O         19.2040   -2.9000   24.6900 O.2   145  ALA145     -0.2718
     86  CB        18.2490   -3.3640   21.2080 C.3   145  ALA145      0.0304
     87  N         19.5010   -1.5600   22.9230 N.am  146  PHE146     -0.1976
     88  CA        19.8560   -0.4400   23.7900 C.3   146  PHE146      0.1639
     89  C         18.7550    0.6110   23.8070 C.2   146  PHE146      0.2290
     90  O         19.0160    1.8200   23.8670 O.2   146  PHE146     -0.2864
     91  CB        21.1890    0.2030   23.3850 C.3   146  PHE146      0.0560
     92  CG        22.3960   -0.4980   23.9510 C.ar  146  PHE146     -0.0200
     93  CD1       22.4760   -0.7900   25.3120 C.ar  146  PHE146     -0.0042
     94  CD2       23.4560   -0.8600   23.1280 C.ar  146  PHE146     -0.0042
     95  CE1       23.5960   -1.4350   25.8430 C.ar  146  PHE146     -0.0003
     96  CE2       24.5790   -1.5040   23.6460 C.ar  146  PHE146     -0.0003
     97  CZ        24.6510   -1.7930   25.0060 C.ar  146  PHE146     -0.0000
     98  N         23.0750    0.9000   33.1860 N.3   166  THR166     -0.1218
     99  CA        23.4400   -0.0140   32.1070 C.3   166  THR166      0.1862
    100  C         24.9670   -0.0490   32.0030 C.2   166  THR166      0.2287
    101  O         25.5620   -1.1040   31.7960 O.2   166  THR166     -0.2866
    102  CB        22.8350    0.4470   30.7540 C.3   166  THR166      0.1770
    103  OG1       21.4160    0.2370   30.7700 O.3   166  THR166     -0.2211
    104  CG2       23.4490   -0.3230   29.5930 C.3   166  THR166      0.0375
    105  N         26.3350   -2.1430   34.8400 N.3   169  ALA169     -0.1231
    106  CA        26.1050   -3.5530   34.5670 C.3   169  ALA169      0.1694
    107  C         27.0970   -4.0960   33.5470 C.2   169  ALA169      0.2592
    108  O         27.6290   -5.1930   33.7040 O.2   169  ALA169     -0.2718
    109  CB        24.6820   -3.7580   34.0690 C.3   169  ALA169      0.0304
    110  N         27.3520   -3.3160   32.5030 N.am  170  ASN170     -0.1974
    111  CA        28.2660   -3.7330   31.4500 C.3   170  ASN170      0.1688
    112  C         29.7400   -3.6000   31.8270 C.2   170  ASN170      0.2292
    113  O         30.6010   -4.1830   31.1700 O.2   170  ASN170     -0.2864
    114  CB        27.9690   -2.9400   30.1740 C.3   170  ASN170      0.1181
    115  CG        26.6850   -3.3940   29.4920 C.2   170  ASN170      0.2629
    116  OD1       25.7970   -3.9620   30.1300 O.2   170  ASN170     -0.2716
    117  ND2       26.5800   -3.1390   28.1930 N.am  170  ASN170     -0.0877
    118  N         32.5240   -6.2900   32.0010 N.3   173  PHE173     -0.1241
    119  CA        33.3470   -6.6840   30.8610 C.3   173  PHE173      0.1605
    120  C         34.5220   -5.7370   30.6350 C.2   173  PHE173      0.2264
    121  O         35.3820   -5.9920   29.7930 O.2   173  PHE173     -0.2867
    122  CB        32.4860   -6.7570   29.5990 C.3   173  PHE173      0.0534
    123  CG        31.4250   -7.8160   29.6580 C.ar  173  PHE173     -0.0203
    124  CD1       31.7730   -9.1570   29.7830 C.ar  173  PHE173     -0.0042
    125  CD2       30.0770   -7.4730   29.6110 C.ar  173  PHE173     -0.0042
    126  CE1       30.7920  -10.1470   29.8640 C.ar  173  PHE173     -0.0003
    127  CE2       29.0900   -8.4510   29.6920 C.ar  173  PHE173     -0.0003
    128  CZ        29.4480   -9.7920   29.8190 C.ar  173  PHE173     -0.0000
    129  N         17.3240  -10.5600   36.3450 N.3   208  LYS208     -0.1245
    130  CA        16.3750  -10.2700   35.2720 C.3   208  LYS208      0.1561
    131  C         14.9210  -10.5420   35.6550 C.2   208  LYS208      0.2260
    132  O         14.0220  -10.3870   34.8270 O.2   208  LYS208     -0.2867
    133  CB        16.7180  -11.0940   34.0260 C.3   208  LYS208      0.0271
    134  CG        18.1520  -10.9340   33.5300 C.3   208  LYS208      0.0035
    135  CD        18.4540   -9.4950   33.1310 C.3   208  LYS208      0.0206
    136  CE        19.8680   -9.3530   32.5630 C.3   208  LYS208      0.1093
    137  NZ        20.0480  -10.0860   31.2820 N.3   208  LYS208     -0.1314
@<TRIPOS>BOND
     1    40    39    2
     2    39    38    1
     3     1     7    1
     4     1     2    1
     5     7     6    1
     6    41    38    1
     7    41    42    1
     8    38    37    1
     9     2     3    1
    10     2     5    1
    11     4     3    2
    12    14    12    1
    13     3     8   am
    14    42    44   ar
    15    42    43   ar
    16    44    46   ar
    17     6     5    1
    18    86    83    1
    19     8     9    1
    20    12     9    1
    21    12    13    1
    22    43    45   ar
    23     9    10    1
    24    46    47   ar
    25    83    82    1
    26    83    84    1
    27    87    84   am
    28    87    88    1
    29    94    96   ar
    30    94    92   ar
    31    91    88    1
    32    91    92    1
    33    34    35    1
    34    34    31    1
    35    45    47   ar
    36    84    85    2
    37    33    32    2
    38    47    48    1
    39    96    97   ar
    40    88    89    1
    41    89    90    2
    42    10    11    2
    43    10    15   am
    44    35    36    1
    45    92    93   ar
    46    49    50    1
    47    32    31    1
    48    31    30    1
    49    15    16    1
    50    97    95   ar
    51    93    95   ar
    52    36    30    1
    53    52    51    2
    54    50    51    1
    55    30    25   am
    56    18    17    2
    57    16    17    1
    58    51    53   am
    59    17    19   am
    60    74    75    2
    61    74    73    1
    62    25    26    2
    63    25    24    1
    64    78    80   ar
    65    78    77   ar
    66    53    54    1
    67    76    73    1
    68    76    77    1
    69    80    81   ar
    70    73    72    1
    71    77    79   ar
    72    29    27    1
    73    27    24    1
    74    27    28    1
    75    19    20    1
    76    24    23    1
    77   117   115   am
    78    54    57    1
    79    54    55    1
    80    23    21   am
    81    81    79   ar
    82    21    22    2
    83    21    20    1
    84    57    59    1
    85    57    58    1
    86    55    60   am
    87    55    56    2
    88    60    61    1
    89   115   116    2
    90   115   114    1
    91   104   102    1
    92   122   123    1
    93   122   119    1
    94   125   123   ar
    95   125   127   ar
    96   123   124   ar
    97   127   128   ar
    98   124   126   ar
    99   121   120    2
   100   128   126   ar
   101   114   111    1
   102    61    62    1
   103   120   119    1
   104   102   103    1
   105   102    99    1
   106   119   118    1
   107   113   112    2
   108   137   136    1
   109   111   112    1
   110   111   110    1
   111   101   100    2
   112    62    63    2
   113    62    64   am
   114   100    99    1
   115    99    98    1
   116   110   107   am
   117   136   135    1
   118    64    65    1
   119   135   134    1
   120   134   133    1
   121   107   108    2
   122   107   106    1
   123   133   130    1
   124   109   106    1
   125    65    66    1
   126    65    68    1
   127    66    67    2
   128   106   105    1
   129   132   131    2
   130    70    69    2
   131    68    69    1
   132   130   131    1
   133   130   129    1
   134    69    71   am
