@<TRIPOS>MOLECULE
tmp/1fsaB00.pdb
 153 145 0 0 0
SMALL
GASTEIGER

@<TRIPOS>ATOM
      1  N         16.3840  104.4420   34.7830 N.3    97  GLU97      -0.1245
      2  CA        16.2170  105.5800   33.9130 C.3    97  GLU97       0.1567
      3  C         14.9100  105.4320   33.1520 C.2    97  GLU97       0.2260
      4  O         14.0470  106.3260   33.1750 O.2    97  GLU97      -0.2867
      5  CB        17.3970  105.6290   32.9460 C.3    97  GLU97       0.0388
      6  CG        17.7150  107.0020   32.3750 C.3    97  GLU97       0.1160
      7  CD        17.0180  107.3110   31.0660 C.2    97  GLU97       0.3649
      8  OE1       16.2310  106.4720   30.5790 O.co2  97  GLU97      -0.2457
      9  OE2       17.2780  108.4030   30.5130 O.co2  97  GLU97      -0.2457
     10  N         22.4560  103.2090   27.7370 N.3   121  ASP121     -0.1225
     11  CA        22.8170  104.6020   27.6430 C.3   121  ASP121      0.1805
     12  C         23.2210  104.9050   26.2330 C.2   121  ASP121      0.2598
     13  O         23.9500  104.1230   25.6220 O.2   121  ASP121     -0.2718
     14  CB        24.0050  104.9160   28.5550 C.3   121  ASP121      0.1424
     15  CG        24.4240  106.3680   28.4700 C.2   121  ASP121      0.3668
     16  OD1       23.5650  107.2340   28.8010 O.co2 121  ASP121     -0.2456
     17  OD2       25.5790  106.6330   28.0410 O.co2 121  ASP121     -0.2456
     18  N         22.8100  106.0820   25.7650 N.am  122  GLY122     -0.1957
     19  CA        23.1250  106.5200   24.4180 C.3   122  GLY122      0.1869
     20  C         22.3910  105.6920   23.3840 C.2   122  GLY122      0.2309
     21  O         22.5830  105.8830   22.1860 O.2   122  GLY122     -0.2863
     22  N         19.8740  105.8220   21.8340 N.3   124  SER124     -0.1202
     23  CA        19.2920  106.5340   20.7000 C.3   124  SER124      0.2020
     24  C         20.2710  106.4440   19.5450 C.2   124  SER124      0.2618
     25  O         19.9370  106.0340   18.4270 O.2   124  SER124     -0.2717
     26  CB        19.1000  108.0040   21.0820 C.3   124  SER124      0.2103
     27  OG        20.2550  108.5100   21.7480 O.3   124  SER124     -0.2182
     28  N         21.5140  106.7550   19.8890 N.am  125  ASN125     -0.1974
     29  CA        22.6360  106.7780   18.9720 C.3   125  ASN125      0.1688
     30  C         23.2260  105.3840   18.6670 C.2   125  ASN125      0.2292
     31  O         24.4340  105.2210   18.4960 O.2   125  ASN125     -0.2864
     32  CB        23.6970  107.7610   19.5130 C.3   125  ASN125      0.1181
     33  CG        23.1570  109.2120   19.6570 C.2   125  ASN125      0.2629
     34  OD1       22.4720  109.7280   18.7620 O.2   125  ASN125     -0.2716
     35  ND2       23.4580  109.8590   20.7900 N.am  125  ASN125     -0.0877
     36  N         29.9360  119.4810   24.2440 N.3   212  ASN212     -0.1240
     37  CA        29.1670  119.7300   23.0480 C.3   212  ASN212      0.1653
     38  C         29.2790  121.1990   22.8420 C.2   212  ASN212      0.2266
     39  O         28.4970  121.9670   23.3960 O.2   212  ASN212     -0.2867
     40  CB        27.6870  119.3630   23.2240 C.3   212  ASN212      0.1155
     41  CG        26.9280  119.4090   21.9020 C.2   212  ASN212      0.2627
     42  OD1       27.4160  119.9810   20.9270 O.2   212  ASN212     -0.2716
     43  ND2       25.7550  118.7900   21.8510 N.am  212  ASN212     -0.0877
     44  N         26.5240  124.3090   22.0250 N.3   215  TYR215     -0.1241
     45  CA        25.7030  125.0730   22.9530 C.3   215  TYR215      0.1605
     46  C         26.3880  126.3660   23.3490 C.2   215  TYR215      0.2264
     47  O         25.9190  127.0760   24.2330 O.2   215  TYR215     -0.2867
     48  CB        25.4720  124.2610   24.2070 C.3   215  TYR215      0.0534
     49  CG        24.6880  123.0070   24.0070 C.ar  215  TYR215     -0.0201
     50  CD1       23.3870  123.0650   23.5090 C.ar  215  TYR215     -0.0009
     51  CD2       25.2050  121.7650   24.3740 C.ar  215  TYR215     -0.0009
     52  CE1       22.6150  121.9400   23.3820 C.ar  215  TYR215      0.0417
     53  CE2       24.4320  120.6160   24.2510 C.ar  215  TYR215      0.0417
     54  CZ        23.1300  120.7220   23.7490 C.ar  215  TYR215      0.1957
     55  OH        22.3140  119.6160   23.5980 O.3   215  TYR215     -0.2866
     56  N         34.1940  114.5210   21.4970 N.3   244  TYR244     -0.1241
     57  CA        32.7940  114.4840   21.9040 C.3   244  TYR244      0.1605
     58  C         32.1130  113.3790   21.1050 C.2   244  TYR244      0.2264
     59  O         31.7840  113.5520   19.9370 O.2   244  TYR244     -0.2867
     60  CB        32.0800  115.8160   21.7120 C.3   244  TYR244      0.0534
     61  CG        30.8770  115.9040   22.6180 C.ar  244  TYR244     -0.0201
     62  CD1       31.0130  115.6950   23.9890 C.ar  244  TYR244     -0.0009
     63  CD2       29.5940  116.1310   22.1150 C.ar  244  TYR244     -0.0009
     64  CE1       29.9030  115.7100   24.8410 C.ar  244  TYR244      0.0417
     65  CE2       28.4730  116.1450   22.9650 C.ar  244  TYR244      0.0417
     66  CZ        28.6430  115.9340   24.3300 C.ar  244  TYR244      0.1957
     67  OH        27.5690  115.9580   25.1830 O.3   244  TYR244     -0.2866
     68  N         29.4100  111.8110   22.1690 N.3   246  GLY246     -0.1210
     69  CA        27.9690  111.9780   22.2630 C.3   246  GLY246      0.1956
     70  C         27.3200  110.8920   23.0800 C.2   246  GLY246      0.2613
     71  O         26.1050  110.7200   23.0760 O.2   246  GLY246     -0.2717
     72  N         28.1540  110.1440   23.7860 N.am  247  SER247     -0.1938
     73  CA        27.6830  109.0670   24.6410 C.3   247  SER247      0.2055
     74  C         28.4590  109.1870   25.9290 C.2   247  SER247      0.2642
     75  O         29.7030  109.1050   25.9420 O.2   247  SER247     -0.2714
     76  CB        27.9320  107.6970   24.0160 C.3   247  SER247      0.2130
     77  OG        27.1320  106.7180   24.6650 O.3   247  SER247     -0.2179
     78  N         27.7330  109.3710   27.0180 N.am  248  MET248     -0.1976
     79  CA        28.3940  109.5290   28.2920 C.3   248  MET248      0.1605
     80  C         29.4070  108.4310   28.6160 C.2   248  MET248      0.2287
     81  O         30.5550  108.7180   28.9180 O.2   248  MET248     -0.2864
     82  CB        27.3700  109.6630   29.4180 C.3   248  MET248      0.0413
     83  CG        27.9970  110.1190   30.6790 C.3   248  MET248      0.0598
     84  SD        26.8850  110.4690   32.0010 S.3   248  MET248     -0.1393
     85  CE        28.1130  110.6570   33.2270 C.3   248  MET248      0.0692
     86  N         32.6740  108.8680   26.7140 N.3   251  ASP251     -0.1239
     87  CA        33.4950  110.0130   27.0590 C.3   251  ASP251      0.1674
     88  C         34.1210  109.9000   28.4320 C.2   251  ASP251      0.2266
     89  O         35.3150  110.2010   28.6020 O.2   251  ASP251     -0.2867
     90  CB        32.6870  111.2820   26.9410 C.3   251  ASP251      0.1410
     91  CG        32.1190  111.4570   25.5580 C.2   251  ASP251      0.3668
     92  OD1       32.8350  111.1790   24.5660 O.co2 251  ASP251     -0.2456
     93  OD2       30.9540  111.8610   25.4680 O.co2 251  ASP251     -0.2456
     94  N         35.6690  116.1210   31.1600 N.3   262  PHE262     -0.1241
     95  CA        34.3480  116.0250   30.5380 C.3   262  PHE262      0.1605
     96  C         33.4870  117.0880   31.1630 C.2   262  PHE262      0.2264
     97  O         33.6890  117.4330   32.3010 O.2   262  PHE262     -0.2867
     98  CB        33.7260  114.6650   30.8330 C.3   262  PHE262      0.0534
     99  CG        32.3290  114.5080   30.3140 C.ar  262  PHE262     -0.0203
    100  CD1       32.0880  114.3970   28.9510 C.ar  262  PHE262     -0.0042
    101  CD2       31.2530  114.4130   31.1900 C.ar  262  PHE262     -0.0042
    102  CE1       30.7930  114.1860   28.4820 C.ar  262  PHE262     -0.0003
    103  CE2       29.9770  114.2070   30.7250 C.ar  262  PHE262     -0.0003
    104  CZ        29.7400  114.0910   29.3780 C.ar  262  PHE262     -0.0000
    105  N         29.2960  118.8070   31.0660 N.3   264  TYR264     -0.1241
    106  CA        27.9570  118.8690   30.5490 C.3   264  TYR264      0.1605
    107  C         27.2340  119.8610   31.4650 C.2   264  TYR264      0.2264
    108  O         26.3150  119.5130   32.2300 O.2   264  TYR264     -0.2867
    109  CB        27.2620  117.5150   30.5110 C.3   264  TYR264      0.0534
    110  CG        26.0600  117.6180   29.6300 C.ar  264  TYR264     -0.0201
    111  CD1       24.8680  118.1500   30.1150 C.ar  264  TYR264     -0.0009
    112  CD2       26.1470  117.3370   28.2620 C.ar  264  TYR264     -0.0009
    113  CE1       23.7800  118.4150   29.2500 C.ar  264  TYR264      0.0417
    114  CE2       25.0650  117.6000   27.3940 C.ar  264  TYR264      0.0417
    115  CZ        23.8920  118.1450   27.8960 C.ar  264  TYR264      0.1957
    116  OH        22.8520  118.4690   27.0550 O.3   264  TYR264     -0.2866
    117  N         21.4430  117.9450   31.6760 N.3   274  LYS274     -0.1231
    118  CA        20.6800  116.9000   31.0070 C.3   274  LYS274      0.1693
    119  C         20.8170  115.6050   31.7800 C.2   274  LYS274      0.2592
    120  O         19.8400  114.8960   32.0010 O.2   274  LYS274     -0.2718
    121  CB        21.2090  116.6880   29.5940 C.3   274  LYS274      0.0285
    122  CG        20.4140  115.7030   28.7430 C.3   274  LYS274      0.0035
    123  CD        21.0950  115.5490   27.3780 C.3   274  LYS274      0.0206
    124  CE        20.2580  114.7810   26.3740 C.3   274  LYS274      0.1093
    125  NZ        20.7970  115.0070   25.0080 N.3   274  LYS274     -0.1314
    126  N         22.0370  115.3410   32.2360 N.am  275  LEU275     -0.1966
    127  CA        22.3500  114.1110   32.9460 C.3   275  LEU275      0.1728
    128  C         21.6930  114.0250   34.3090 C.2   275  LEU275      0.2616
    129  O         21.5100  115.0490   34.9650 O.2   275  LEU275     -0.2715
    130  CB        23.8730  113.9180   32.9920 C.3   275  LEU275      0.0311
    131  CG        24.4300  114.0200   31.5590 C.3   275  LEU275      0.0022
    132  CD1       25.9500  114.0630   31.4870 C.3   275  LEU275      0.0001
    133  CD2       23.8860  112.8860   30.7530 C.3   275  LEU275      0.0001
    134  N         21.2640  112.8030   34.6580 N.am  276  ARG276     -0.1977
    135  CA        20.5810  112.4760   35.9210 C.3   276  ARG276      0.1597
    136  C         21.5690  112.2150   37.0230 C.2   276  ARG276      0.2287
    137  O         22.6770  111.7310   36.7980 O.2   276  ARG276     -0.2864
    138  CB        19.6830  111.2560   35.7950 C.3   276  ARG276      0.0334
    139  CG        19.2870  110.9520   34.3980 C.3   276  ARG276      0.0492
    140  CD        18.6110  112.1120   33.7370 C.3   276  ARG276      0.2205
    141  NE        18.6430  111.9400   32.2870 N.pl3 276  ARG276     -0.0865
    142  CZ        17.5600  111.8860   31.5180 C.cat 276  ARG276      0.5346
    143  NH1       16.3380  111.9910   32.0570 N.pl3 276  ARG276      0.1354
    144  NH2       17.7030  111.7240   30.2080 N.pl3 276  ARG276      0.1354
    145  N         23.5360  108.3020   36.5150 N.3   280  GLU280     -0.1245
    146  CA        24.3740  108.7690   35.4090 C.3   280  GLU280      0.1567
    147  C         25.5120  109.5150   36.0520 C.2   280  GLU280      0.2260
    148  O         26.6390  109.0290   36.0970 O.2   280  GLU280     -0.2867
    149  CB        23.6320  109.7360   34.4680 C.3   280  GLU280      0.0388
    150  CG        22.4590  109.1300   33.7350 C.3   280  GLU280      0.1160
    151  CD        22.0640  109.9030   32.5040 C.2   280  GLU280      0.3649
    152  OE1       21.9380  111.1390   32.5560 O.co2 280  GLU280     -0.2457
    153  OE2       21.8810  109.2640   31.4580 O.co2 280  GLU280     -0.2457
@<TRIPOS>BOND
     1    25    24    2
     2    31    30    2
     3    30    29    1
     4    34    33    2
     5    29    32    1
     6    29    28    1
     7    32    33    1
     8    24    28   am
     9    24    23    1
    10    33    35   am
    11    59    58    2
    12    23    26    1
    13    23    22    1
    14    42    41    2
    15    26    27    1
    16    58    57    1
    17    56    57    1
    18    60    57    1
    19    60    61    1
    20    43    41   am
    21    41    40    1
    22    44    45    1
    23    63    61   ar
    24    63    65   ar
    25    68    69    1
    26    21    20    2
    27    69    70    1
    28    61    62   ar
    29    38    37    1
    30    38    39    2
    31    45    46    1
    32    45    48    1
    33    65    66   ar
    34    37    40    1
    35    37    36    1
    36    71    70    2
    37    70    72   am
    38    46    47    2
    39    52    50   ar
    40    52    54   ar
    41    20    19    1
    42    50    49   ar
    43    55    54    1
    44    54    53   ar
    45    72    73    1
    46    62    64   ar
    47    49    48    1
    48    49    51   ar
    49    76    73    1
    50    76    77    1
    51    53    51   ar
    52    66    64   ar
    53    66    67    1
    54    19    18    1
    55    92    91   ar
    56    73    74    1
    57   125   124    1
    58    93    91   ar
    59    91    90    1
    60    13    12    2
    61    18    12   am
    62    74    75    2
    63    74    78   am
    64    12    11    1
    65   124   123    1
    66    86    87    1
    67    90    87    1
    68    78    79    1
    69   116   115    1
    70    87    88    1
    71   123   122    1
    72   114   115   ar
    73   114   112   ar
    74    11    10    1
    75    11    14    1
    76   115   113   ar
    77    17    15   ar
    78   112   110   ar
    79    79    80    1
    80    79    82    1
    81    88    89    2
    82    15    14    1
    83    15    16   ar
    84   102   100   ar
    85   102   104   ar
    86    80    81    2
    87   122   121    1
    88   100    99   ar
    89   113   111   ar
    90   104   103   ar
    91    82    83    1
    92   121   118    1
    93   110   111   ar
    94   110   109    1
    95   144   142    1
    96    99    98    1
    97    99   101   ar
    98   109   106    1
    99     9     7   ar
   100    95    98    1
   101    95    94    1
   102    95    96    1
   103   106   105    1
   104   106   107    1
   105     8     7   ar
   106    83    84    1
   107   103   101   ar
   108   133   131    1
   109   118   117    1
   110   118   119    1
   111     7     6    1
   112    96    97    2
   113   153   151   ar
   114   107   108    2
   115   132   131    1
   116   142   143    1
   117   142   141    2
   118   131   130    1
   119   119   120    2
   120   119   126   am
   121    84    85    1
   122   126   127    1
   123   141   140    1
   124     6     5    1
   125   151   152   ar
   126   151   150    1
   127   127   130    1
   128   127   128    1
   129     5     2    1
   130     3     4    2
   131     3     2    1
   132   150   149    1
   133   140   139    1
   134     2     1    1
   135   128   134   am
   136   128   129    2
   137   139   138    1
   138   149   146    1
   139   134   135    1
   140   146   147    1
   141   146   145    1
   142   138   135    1
   143   135   136    1
   144   147   148    2
   145   137   136    2
