@<TRIPOS>MOLECULE
tmp/1fsaB01.pdb
 134 126 0 0 0
SMALL
GASTEIGER

@<TRIPOS>ATOM
      1  N         35.2770   89.2760   42.5080 N.3    17  VAL17      -0.1245
      2  CA        34.0940   89.6030   43.2830 C.3    17  VAL17       0.1561
      3  C         33.9670   88.6430   44.4440 C.2    17  VAL17       0.2260
      4  O         33.5550   89.0310   45.5360 O.2    17  VAL17      -0.2867
      5  CB        32.8260   89.5260   42.4010 C.3    17  VAL17       0.0252
      6  CG1       31.5910   89.2500   43.2360 C.3    17  VAL17       0.0019
      7  CG2       32.6400   90.8370   41.6730 C.3    17  VAL17       0.0019
      8  N         37.1990   89.3340   46.9440 N.3    20  GLN20      -0.1231
      9  CA        36.8920   90.6100   47.5740 C.3    20  GLN20       0.1698
     10  C         35.8050   90.5510   48.6500 C.2    20  GLN20       0.2592
     11  O         35.9390   91.1720   49.7150 O.2    20  GLN20      -0.2718
     12  CB        36.5320   91.6430   46.5140 C.3    20  GLN20       0.0381
     13  CG        37.7510   92.2900   45.9010 C.3    20  GLN20       0.0905
     14  CD        38.5680   93.0580   46.9250 C.2    20  GLN20       0.2608
     15  OE1       38.0220   93.7840   47.7640 O.2    20  GLN20      -0.2717
     16  NE2       39.8880   92.9080   46.8570 N.am   20  GLN20      -0.0878
     17  N         34.7480   89.7930   48.3890 N.am   21  GLY21      -0.1957
     18  CA        33.6820   89.6760   49.3670 C.3    21  GLY21       0.1869
     19  C         34.0750   88.8970   50.6160 C.2    21  GLY21       0.2309
     20  O         33.6070   89.1860   51.7230 O.2    21  GLY21      -0.2863
     21  N         35.9770   91.0010   52.8170 N.3    24  ALA24      -0.1245
     22  CA        35.0330   91.8920   53.4450 C.3    24  ALA24       0.1562
     23  C         34.3790   91.1680   54.5880 C.2    24  ALA24       0.2260
     24  O         33.8390   91.7860   55.4890 O.2    24  ALA24      -0.2867
     25  CB        33.9980   92.3270   52.4490 C.3    24  ALA24       0.0290
     26  N         31.7550   89.5880   54.3710 N.3    26  GLY26      -0.1210
     27  CA        30.3200   89.7740   54.2770 C.3    26  GLY26       0.1956
     28  C         29.6310   88.4610   53.9750 C.2    26  GLY26       0.2613
     29  O         30.2520   87.5500   53.4360 O.2    26  GLY26      -0.2717
     30  N         28.3340   88.3770   54.2450 N.am   27  THR27      -0.1938
     31  CA        27.5980   87.1360   54.0150 C.3    27  THR27       0.2028
     32  C         27.6100   86.6450   52.5540 C.2    27  THR27       0.2643
     33  O         27.8230   85.4510   52.2900 O.2    27  THR27      -0.2714
     34  CB        26.1350   87.1870   54.5950 C.3    27  THR27       0.1808
     35  OG1       25.2670   87.9500   53.7580 O.3    27  THR27      -0.2208
     36  CG2       26.1380   87.8170   55.9600 C.3    27  THR27       0.0379
     37  N         27.4230   87.5550   51.6050 N.am   28  GLY28      -0.1939
     38  CA        27.4240   87.1530   50.2100 C.3    28  GLY28       0.2014
     39  C         26.1910   87.6360   49.4970 C.2    28  GLY28       0.2639
     40  O         25.9650   87.3320   48.3260 O.2    28  GLY28      -0.2714
     41  N         25.3980   88.4240   50.2020 N.am   29  GLU29      -0.1963
     42  CA        24.1860   88.9610   49.6370 C.3    29  GLU29       0.1733
     43  C         24.6060   89.8510   48.4840 C.2    29  GLU29       0.2616
     44  O         24.0400   89.7510   47.3900 O.2    29  GLU29      -0.2715
     45  CB        23.4150   89.7630   50.6850 C.3    29  GLU29       0.0429
     46  CG        22.1000   90.2800   50.1670 C.3    29  GLU29       0.1163
     47  CD        20.9080   89.8950   51.0350 C.2    29  GLU29       0.3649
     48  OE1       20.6670   90.6110   52.0300 O.co2  29  GLU29      -0.2457
     49  OE2       20.1920   88.9110   50.7010 O.co2  29  GLU29      -0.2457
     50  N         25.6440   90.6620   48.7140 N.am   30  MET30      -0.1963
     51  CA        26.1590   91.5770   47.6890 C.3    30  MET30       0.1736
     52  C         26.7300   90.7720   46.5570 C.2    30  MET30       0.2617
     53  O         26.2080   90.8390   45.4520 O.2    30  MET30      -0.2715
     54  CB        27.2230   92.5230   48.2270 C.3    30  MET30       0.0427
     55  CG        27.5650   93.6220   47.2300 C.3    30  MET30       0.0599
     56  SD        28.4680   95.0010   47.9830 S.3    30  MET30      -0.1393
     57  CE        27.7510   96.4320   47.2080 C.3    30  MET30       0.0692
     58  N         27.7860   89.9990   46.8470 N.am   31  THR31      -0.1951
     59  CA        28.4380   89.1320   45.8780 C.3    31  THR31       0.1897
     60  C         27.3810   88.5230   44.9480 C.2    31  THR31       0.2313
     61  O         27.6130   88.4130   43.7370 O.2    31  THR31      -0.2863
     62  CB        29.2250   88.0320   46.5860 C.3    31  THR31       0.1794
     63  OG1       30.3710   88.6050   47.2390 O.3    31  THR31      -0.2208
     64  CG2       29.6950   86.9660   45.5980 C.3    31  THR31       0.0378
     65  N         26.3720   91.4290   42.7870 N.3    34  LEU34      -0.1245
     66  CA        27.4540   91.7090   41.8760 C.3    34  LEU34       0.1561
     67  C         27.5260   90.7390   40.7000 C.2    34  LEU34       0.2260
     68  O         27.8470   91.1430   39.5820 O.2    34  LEU34      -0.2867
     69  CB        28.7760   91.7560   42.6120 C.3    34  LEU34       0.0270
     70  CG        28.9900   93.0930   43.3110 C.3    34  LEU34       0.0019
     71  CD1       30.4300   93.2550   43.7480 C.3    34  LEU34       0.0001
     72  CD2       28.6230   94.1980   42.3460 C.3    34  LEU34       0.0001
     73  N         18.6920   93.6410   51.0550 N.3   112  LYS112     -0.1231
     74  CA        18.9860   94.9370   51.6470 C.3   112  LYS112      0.1693
     75  C         19.7970   95.8620   50.7550 C.2   112  LYS112      0.2592
     76  O         20.6850   96.5680   51.2360 O.2   112  LYS112     -0.2718
     77  CB        19.7000   94.7420   52.9900 C.3   112  LYS112      0.0285
     78  CG        20.9360   93.8740   52.9310 C.3   112  LYS112      0.0035
     79  CD        22.1030   94.5710   53.6060 C.3   112  LYS112      0.0206
     80  CE        23.4040   93.8390   53.3370 C.3   112  LYS112      0.1093
     81  NZ        23.2740   92.3370   53.5270 N.3   112  LYS112     -0.1314
     82  N         19.4830   95.8970   49.4660 N.am  113  TYR113     -0.1976
     83  CA        20.2330   96.7480   48.5440 C.3   113  TYR113      0.1639
     84  C         19.3760   97.4480   47.5300 C.2   113  TYR113      0.2290
     85  O         18.5030   96.8380   46.9180 O.2   113  TYR113     -0.2864
     86  CB        21.2790   95.9490   47.7970 C.3   113  TYR113      0.0560
     87  CG        22.5050   95.6700   48.5900 C.ar  113  TYR113     -0.0198
     88  CD1       23.5160   96.6050   48.6640 C.ar  113  TYR113     -0.0009
     89  CD2       22.6780   94.4510   49.2340 C.ar  113  TYR113     -0.0009
     90  CE1       24.6700   96.3470   49.3540 C.ar  113  TYR113      0.0417
     91  CE2       23.8340   94.1770   49.9300 C.ar  113  TYR113      0.0417
     92  CZ        24.8240   95.1340   49.9800 C.ar  113  TYR113      0.1957
     93  OH        25.9890   94.8980   50.6420 O.3   113  TYR113     -0.2866
     94  N         23.0640  100.7350   50.0740 N.3   140  ARG140     -0.1245
     95  CA        22.5790   99.7410   51.0240 C.3   140  ARG140      0.1563
     96  C         21.4010  100.4050   51.6940 C.2   140  ARG140      0.2260
     97  O         21.4950  101.5630   52.0840 O.2   140  ARG140     -0.2867
     98  CB        23.6270   99.4210   52.0890 C.3   140  ARG140      0.0307
     99  CG        23.1750   98.3360   53.0740 C.3   140  ARG140      0.0489
    100  CD        24.1280   98.1080   54.2480 C.3   140  ARG140      0.2205
    101  NE        25.4310   97.5500   53.8810 N.pl3 140  ARG140     -0.0865
    102  CZ        26.4610   98.2740   53.4340 C.cat 140  ARG140      0.5346
    103  NH1       26.3450   99.5910   53.2720 N.pl3 140  ARG140      0.1354
    104  NH2       27.6120   97.6890   53.1400 N.pl3 140  ARG140      0.1354
    105  N         27.8240  102.1170   47.7760 N.3   160  VAL160     -0.1245
    106  CA        28.6180  101.0010   48.3080 C.3   160  VAL160      0.1561
    107  C         29.4760  100.3670   47.2010 C.2   160  VAL160      0.2260
    108  O         30.5040   99.7220   47.4810 O.2   160  VAL160     -0.2867
    109  CB        27.7290   99.9540   49.0310 C.3   160  VAL160      0.0252
    110  CG1       26.5340   99.5950   48.1920 C.3   160  VAL160      0.0019
    111  CG2       28.5280   98.7000   49.3700 C.3   160  VAL160      0.0019
    112  N         34.7730  100.3680   43.9620 N.3   177  MET177     -0.1182
    113  CA        34.3720  100.1280   45.3440 C.3   177  MET177      0.1917
    114  C         35.3880  100.8310   46.2610 C.2   177  MET177      0.2634
    115  O         36.4700  101.2180   45.8150 O.2   177  MET177     -0.2714
    116  CB        34.3370   98.5990   45.6450 C.2   177  MET177      0.0083
    117  CG        33.2220   97.7950   44.8880 C.2   177  MET177      0.0282
    118  SD        32.9460   95.9830   45.2400 S.3   177  MET177     -0.1125
    119  CE        34.5200   95.3180   44.6830 C.3   177  MET177      0.0742
    120  N         35.0110  101.0180   47.5240 N.am  178  VAL178     -0.1963
    121  CA        35.8460  101.6330   48.5710 C.3   178  VAL178      0.1727
    122  C         37.3360  101.6220   48.2780 C.2   178  VAL178      0.2616
    123  O         37.9790  102.6740   48.1860 O.2   178  VAL178     -0.2715
    124  CB        35.6200  100.9090   49.9490 C.3   178  VAL178      0.0290
    125  CG1       35.3890   99.4240   49.7340 C.3   178  VAL178      0.0023
    126  CG2       36.8330  101.0450   50.8680 C.3   178  VAL178      0.0023
    127  N         37.8740  100.4190   48.1190 N.am  179  ASN179     -0.1972
    128  CA        39.2930  100.2530   47.8920 C.3   179  ASN179      0.1688
    129  C         39.8910  100.4900   46.4880 C.2   179  ASN179      0.2292
    130  O         41.1230  100.5440   46.3770 O.2   179  ASN179     -0.2864
    131  CB        39.7870   98.9240   48.5000 C.3   179  ASN179      0.1181
    132  CG        39.2310   97.6620   47.7900 C.2   179  ASN179      0.2629
    133  OD1       38.1880   97.6820   47.1220 O.2   179  ASN179     -0.2716
    134  ND2       39.9330   96.5440   47.9790 N.am  179  ASN179     -0.0877
@<TRIPOS>BOND
     1    68    67    2
     2    67    66    1
     3     7     5    1
     4    66    69    1
     5    66    65    1
     6    72    70    1
     7     5     6    1
     8     5     2    1
     9     1     2    1
    10    69    70    1
    11     2     3    1
    12    70    71    1
    13    61    60    2
    14   112   113    1
    15     3     4    2
    16   119   118    1
    17   117   118    1
    18   117   116    2
    19    60    59    1
    20   113   116    1
    21   113   114    1
    22    53    52    2
    23    64    62    1
    24   115   114    2
    25    59    62    1
    26    59    58    1
    27    13    12    1
    28    13    14    1
    29   114   120   am
    30   130   129    2
    31   129   128    1
    32    12     9    1
    33    52    58   am
    34    52    51    1
    35    62    63    1
    36    16    14   am
    37    85    84    2
    38    14    15    2
    39     8     9    1
    40   133   132    2
    41   107   108    2
    42   107   106    1
    43    57    56    1
    44    55    56    1
    45    55    54    1
    46    44    43    2
    47   120   121    1
    48    84    83    1
    49     9    10    1
    50    51    54    1
    51    51    50    1
    52   105   106    1
    53   132   134   am
    54   132   131    1
    55    86    83    1
    56    86    87    1
    57   128   127    1
    58   128   131    1
    59   127   122   am
    60   123   122    2
    61   110   109    1
    62   122   121    1
    63   106   109    1
    64    40    39    2
    65    17    10   am
    66    17    18    1
    67    43    50   am
    68    43    42    1
    69    83    82    1
    70   121   124    1
    71    87    88   ar
    72    87    89   ar
    73    10    11    2
    74    88    90   ar
    75   109   111    1
    76    89    91   ar
    77    90    92   ar
    78    18    19    1
    79    82    75   am
    80    39    41   am
    81    39    38    1
    82    42    41    1
    83    42    45    1
    84   125   124    1
    85    91    92   ar
    86   124   126    1
    87    92    93    1
    88    94    95    1
    89    46    45    1
    90    46    47    1
    91    38    37    1
    92    19    20    2
    93    49    47   ar
    94    75    76    2
    95    75    74    1
    96    95    96    1
    97    95    98    1
    98    47    48   ar
    99    73    74    1
   100    37    32   am
   101    74    77    1
   102    96    97    2
   103    98    99    1
   104    33    32    2
   105    25    22    1
   106    32    31    1
   107    21    22    1
   108    78    77    1
   109    78    79    1
   110    99   100    1
   111   104   102    1
   112   103   102    1
   113    80    81    1
   114    80    79    1
   115   102   101    2
   116    29    28    2
   117    22    23    1
   118    35    34    1
   119   101   100    1
   120    28    30   am
   121    28    27    1
   122    31    30    1
   123    31    34    1
   124    27    26    1
   125    23    24    2
   126    34    36    1
