@<TRIPOS>MOLECULE
tmp/1fsgA00.pdb
 194 191 0 0 0
SMALL
GASTEIGER

@<TRIPOS>ATOM
      1  N         30.9360   38.5990  -15.0530 N.3    80  ILE80      -0.1231
      2  CA        29.9810   39.0210  -16.0520 C.3    80  ILE80       0.1692
      3  C         29.4070   40.4000  -15.6680 C.2    80  ILE80       0.2592
      4  O         28.6190   40.5310  -14.7300 O.2    80  ILE80      -0.2718
      5  CB        28.8440   38.0170  -16.2900 C.3    80  ILE80       0.0266
      6  CG1       29.3720   36.6060  -16.6190 C.3    80  ILE80       0.0019
      7  CG2       27.9170   38.5690  -17.3780 C.3    80  ILE80       0.0020
      8  CD1       30.2820   36.5550  -17.8480 C.3    80  ILE80       0.0001
      9  N         29.8580   41.4190  -16.3800 N.am   81  LEU81      -0.1966
     10  CA        29.4810   42.8100  -16.1040 C.3    81  LEU81       0.1728
     11  C         28.1620   43.1670  -16.8090 C.2    81  LEU81       0.2616
     12  O         27.8440   42.6210  -17.8570 O.2    81  LEU81      -0.2715
     13  CB        30.5880   43.7440  -16.5680 C.3    81  LEU81       0.0311
     14  CG        31.9160   43.6240  -15.7950 C.3    81  LEU81       0.0022
     15  CD1       33.0270   44.2930  -16.5760 C.3    81  LEU81       0.0001
     16  CD2       31.8020   44.1610  -14.4000 C.3    81  LEU81       0.0001
     17  N         27.4340   44.1590  -16.2590 N.am   82  LYS82      -0.1963
     18  CA        27.7380   44.8780  -15.0320 C.3    82  LYS82       0.1728
     19  C         27.3370   44.1220  -13.7440 C.2    82  LYS82       0.2616
     20  O         27.9010   44.3320  -12.6800 O.2    82  LYS82      -0.2715
     21  CB        27.0410   46.2240  -14.9730 C.3    82  LYS82       0.0311
     22  CG        27.3130   47.1750  -16.1560 C.3    82  LYS82       0.0038
     23  CD        26.7550   48.5580  -15.8940 C.3    82  LYS82       0.0206
     24  CE        26.7080   49.4040  -17.1470 C.3    82  LYS82       0.1093
     25  NZ        26.1010   50.7410  -16.8710 N.3    82  LYS82      -0.1314
     26  N         26.2720   43.2880  -13.8610 N.am   83  GLY83      -0.1955
     27  CA        25.5490   42.8910  -12.6720 C.3    83  GLY83       0.1869
     28  C         26.3150   42.1180  -11.6390 C.2    83  GLY83       0.2309
     29  O         26.0240   42.2250  -10.4520 O.2    83  GLY83      -0.2863
     30  N         31.6300   41.7420  -20.5540 N.3   117  ARG117     -0.1231
     31  CA        30.3710   42.4960  -20.4310 C.3   117  ARG117      0.1694
     32  C         29.3490   41.8620  -21.3440 C.2   117  ARG117      0.2592
     33  O         29.5760   41.7970  -22.5560 O.2   117  ARG117     -0.2718
     34  CB        30.5940   44.0050  -20.6780 C.3   117  ARG117      0.0321
     35  CG        29.4110   44.9170  -20.3560 C.3   117  ARG117      0.0489
     36  CD        28.2790   44.9330  -21.3880 C.3   117  ARG117      0.2205
     37  NE        27.4370   46.0670  -21.1610 N.pl3 117  ARG117     -0.0865
     38  CZ        26.4770   46.1420  -20.2340 C.cat 117  ARG117      0.5346
     39  NH1       26.1580   45.0780  -19.5050 N.pl3 117  ARG117      0.1354
     40  NH2       25.8430   47.2740  -20.0470 N.pl3 117  ARG117      0.1354
     41  N         28.2310   41.4120  -20.7770 N.am  118  LEU118     -0.1966
     42  CA        27.1060   40.8510  -21.5120 C.3   118  LEU118      0.1728
     43  C         25.9120   41.7470  -21.3080 C.2   118  LEU118      0.2616
     44  O         25.7420   42.2720  -20.1880 O.2   118  LEU118     -0.2715
     45  CB        26.8040   39.4070  -21.0350 C.3   118  LEU118      0.0311
     46  CG        27.9700   38.4020  -21.1870 C.3   118  LEU118      0.0022
     47  CD1       27.5590   37.0250  -20.6870 C.3   118  LEU118      0.0001
     48  CD2       28.4950   38.3190  -22.5940 C.3   118  LEU118      0.0001
     49  N         25.0580   41.8790  -22.3050 N.am  119  LYS119     -0.1963
     50  CA        23.8240   42.6550  -22.0810 C.3   119  LYS119      0.1728
     51  C         22.6460   42.0730  -22.8940 C.2   119  LYS119      0.2617
     52  O         22.7940   41.8360  -24.1030 O.2   119  LYS119     -0.2715
     53  CB        23.9530   44.1410  -22.4550 C.3   119  LYS119      0.0311
     54  CG        22.8650   44.9900  -21.7870 C.3   119  LYS119      0.0038
     55  CD        22.8590   46.4280  -22.1460 C.3   119  LYS119      0.0206
     56  CE        21.8980   47.2220  -21.1960 C.3   119  LYS119      0.1093
     57  NZ        21.8760   48.5860  -21.7420 N.3   119  LYS119     -0.1314
     58  N         21.5480   41.8650  -22.2150 N.am  120  SER120     -0.1936
     59  CA        20.3080   41.3160  -22.7440 C.3   120  SER120      0.2055
     60  C         19.0580   42.1690  -22.4950 C.2   120  SER120      0.2643
     61  O         18.1960   42.3140  -23.3580 O.2   120  SER120     -0.2714
     62  CB        20.0730   39.9220  -22.0790 C.3   120  SER120      0.2130
     63  OG        18.8190   39.4540  -22.5410 O.3   120  SER120     -0.2179
     64  N         18.8960   42.7810  -21.3300 N.am  121  TYR121     -0.1973
     65  CA        17.6520   43.3560  -20.9010 C.3   121  TYR121      0.1639
     66  C         17.5170   44.8310  -21.2000 C.2   121  TYR121      0.2290
     67  O         18.4900   45.6190  -21.1630 O.2   121  TYR121     -0.2864
     68  CB        17.4720   43.1420  -19.3630 C.3   121  TYR121      0.0560
     69  CG        17.0520   41.7240  -19.1240 C.ar  121  TYR121     -0.0198
     70  CD1       17.9630   40.7010  -18.9580 C.ar  121  TYR121     -0.0009
     71  CD2       15.7040   41.4030  -19.1300 C.ar  121  TYR121     -0.0009
     72  CE1       17.5260   39.3900  -18.7700 C.ar  121  TYR121      0.0417
     73  CE2       15.2810   40.0810  -18.9520 C.ar  121  TYR121      0.0417
     74  CZ        16.1780   39.0780  -18.7680 C.ar  121  TYR121      0.1957
     75  OH        15.7110   37.8080  -18.5960 O.3   121  TYR121     -0.2866
     76  N         28.2520   35.0790  -12.0250 N.3   149  GLU149     -0.1231
     77  CA        27.0500   35.7990  -12.4500 C.3   149  GLU149      0.1699
     78  C         26.2080   36.1740  -11.2480 C.2   149  GLU149      0.2592
     79  O         26.2250   35.5250  -10.2180 O.2   149  GLU149     -0.2718
     80  CB        26.1560   34.9850  -13.4070 C.3   149  GLU149      0.0402
     81  CG        26.1910   35.3350  -14.8570 C.3   149  GLU149      0.1161
     82  CD        25.5380   36.6640  -15.1880 C.2   149  GLU149      0.3649
     83  OE1       25.6490   37.6380  -14.3820 O.co2 149  GLU149     -0.2457
     84  OE2       24.8620   36.7590  -16.2660 O.co2 149  GLU149     -0.2457
     85  N         25.4080   37.2670  -11.4140 N.am  150  ASP150     -0.1960
     86  CA        24.4870   37.6570  -10.3400 C.3   150  ASP150      0.1840
     87  C         23.1760   36.8500  -10.3250 C.2   150  ASP150      0.2622
     88  O         22.7170   36.4670   -9.2190 O.2   150  ASP150     -0.2715
     89  CB        24.2030   39.1520  -10.3290 C.3   150  ASP150      0.1450
     90  CG        23.5740   39.7630  -11.5540 C.2   150  ASP150      0.3671
     91  OD1       23.1480   40.9310  -11.4190 O.co2 150  ASP150     -0.2456
     92  OD2       23.5580   39.1120  -12.6290 O.co2 150  ASP150     -0.2456
     93  N         22.5700   36.5960  -11.4600 N.am  151  ILE151     -0.1963
     94  CA        21.3350   35.8410  -11.5460 C.3   151  ILE151      0.1727
     95  C         21.2920   35.0690  -12.8450 C.2   151  ILE151      0.2616
     96  O         21.7210   35.5740  -13.8970 O.2   151  ILE151     -0.2715
     97  CB        20.0680   36.7560  -11.3430 C.3   151  ILE151      0.0290
     98  CG1       18.7690   35.9210  -11.3240 C.3   151  ILE151      0.0022
     99  CG2       20.0090   37.9040  -12.3310 C.3   151  ILE151      0.0023
    100  CD1       17.5710   36.6990  -10.8220 C.3   151  ILE151      0.0001
    101  N         20.7000   33.8790  -12.7880 N.am  152  VAL152     -0.1963
    102  CA        20.2460   33.1100  -13.9360 C.3   152  VAL152      0.1727
    103  C         18.7010   33.0740  -13.8560 C.2   152  VAL152      0.2616
    104  O         18.1420   32.7070  -12.8120 O.2   152  VAL152     -0.2715
    105  CB        20.8270   31.6800  -13.9750 C.3   152  VAL152      0.0290
    106  CG1       20.2010   30.8770  -15.1130 C.3   152  VAL152      0.0023
    107  CG2       22.3480   31.7370  -14.0730 C.3   152  VAL152      0.0023
    108  N         18.0500   33.5020  -14.9410 N.am  153  ASP153     -0.1957
    109  CA        16.5990   33.6350  -14.9950 C.3   153  ASP153      0.1840
    110  C         16.1170   32.7600  -16.1450 C.2   153  ASP153      0.2623
    111  O         15.8070   31.5820  -15.9700 O.2   153  ASP153     -0.2715
    112  CB        16.2110   35.1180  -15.0680 C.3   153  ASP153      0.1450
    113  CG        14.7380   35.3880  -15.0300 C.2   153  ASP153      0.3671
    114  OD1       13.9270   34.4660  -15.2760 O.co2 153  ASP153     -0.2456
    115  OD2       14.3660   36.5960  -14.7060 O.co2 153  ASP153     -0.2456
    116  N         16.1250   33.2740  -17.3920 N.am  154  THR154     -0.1937
    117  CA        15.7900   32.4710  -18.5530 C.3   154  THR154      0.2028
    118  C         16.9180   31.5250  -18.9700 C.2   154  THR154      0.2643
    119  O         16.6560   30.5420  -19.6980 O.2   154  THR154     -0.2714
    120  CB        15.3480   33.2990  -19.7640 C.3   154  THR154      0.1808
    121  OG1       16.4340   34.0020  -20.3390 O.3   154  THR154     -0.2208
    122  CG2       14.3280   34.3420  -19.4340 C.3   154  THR154      0.0379
    123  N         18.1580   31.8580  -18.5910 N.am  155  GLY155     -0.1939
    124  CA        19.3080   31.1110  -19.0690 C.3   155  GLY155      0.2014
    125  C         19.9190   31.5490  -20.3750 C.2   155  GLY155      0.2639
    126  O         20.9600   31.0720  -20.8220 O.2   155  GLY155     -0.2714
    127  N         19.3540   32.4940  -21.0880 N.am  156  PHE156     -0.1959
    128  CA        19.7430   32.9550  -22.3890 C.3   156  PHE156      0.1771
    129  C         21.2050   33.4880  -22.3010 C.2   156  PHE156      0.2620
    130  O         22.0370   33.1200  -23.1160 O.2   156  PHE156     -0.2715
    131  CB        18.7950   34.0120  -22.9520 C.3   156  PHE156      0.0574
    132  CG        19.2820   34.6910  -24.2290 C.ar  156  PHE156     -0.0200
    133  CD1       19.3150   33.9800  -25.4000 C.ar  156  PHE156     -0.0042
    134  CD2       19.6470   35.9960  -24.2410 C.ar  156  PHE156     -0.0042
    135  CE1       19.7190   34.6480  -26.5550 C.ar  156  PHE156     -0.0003
    136  CE2       20.0580   36.6890  -25.3540 C.ar  156  PHE156     -0.0003
    137  CZ        20.0710   35.9750  -26.5490 C.ar  156  PHE156     -0.0000
    138  N         21.4480   34.3510  -21.3440 N.am  157  THR157     -0.1937
    139  CA        22.7920   34.9940  -21.2530 C.3   157  THR157      0.2028
    140  C         23.8960   33.9610  -21.2010 C.2   157  THR157      0.2642
    141  O         24.8730   34.0210  -21.9480 O.2   157  THR157     -0.2714
    142  CB        22.8130   35.9670  -20.0410 C.3   157  THR157      0.1808
    143  OG1       21.8890   37.0360  -20.2900 O.3   157  THR157     -0.2208
    144  CG2       24.1980   36.5320  -19.8320 C.3   157  THR157      0.0379
    145  N         23.7790   33.0250  -20.2360 N.am  158  LEU158     -0.1977
    146  CA        24.8570   32.0320  -20.0550 C.3   158  LEU158      0.1596
    147  C         24.8140   30.8800  -21.0400 C.2   158  LEU158      0.2287
    148  O         25.8660   30.2440  -21.2660 O.2   158  LEU158     -0.2864
    149  CB        24.9220   31.5380  -18.6000 C.3   158  LEU158      0.0297
    150  CG        25.4430   32.5680  -17.5950 C.3   158  LEU158      0.0022
    151  CD1       25.6140   31.8410  -16.2370 C.3   158  LEU158      0.0001
    152  CD2       26.7310   33.2630  -18.0120 C.3   158  LEU158      0.0001
    153  N         10.8390   40.1530  -10.0670 N.3   202  TRP202     -0.1241
    154  CA        11.9340   40.9410  -10.5880 C.3   202  TRP202      0.1605
    155  C         12.6170   41.6670   -9.4340 C.2   202  TRP202      0.2264
    156  O         12.0200   42.4880   -8.7420 O.2   202  TRP202     -0.2867
    157  CB        11.5420   42.0220  -11.6240 C.3   202  TRP202      0.0550
    158  CG        12.7570   42.6440  -12.3510 C.ar  202  TRP202      0.0003
    159  CD1       13.4540   43.7770  -12.0680 C.ar  202  TRP202      0.0946
    160  CD2       13.4010   42.1250  -13.5170 C.ar  202  TRP202      0.0152
    161  NE1       14.5320   44.0630  -12.9400 N.ar  202  TRP202     -0.2442
    162  CE2       14.4720   43.0100  -13.8360 C.ar  202  TRP202      0.0810
    163  CE3       13.1800   40.9650  -14.3390 C.ar  202  TRP202      0.0012
    164  CZ2       15.2580   42.7310  -14.9300 C.ar  202  TRP202      0.0191
    165  CZ3       13.9860   40.7150  -15.4100 C.ar  202  TRP202      0.0001
    166  CH2       15.0260   41.6350  -15.6760 C.ar  202  TRP202      0.0015
    167  N         19.7630   45.7080  -11.3090 N.3   209  ASP209     -0.1239
    168  CA        19.2520   47.0090  -11.7600 C.3   209  ASP209      0.1674
    169  C         17.9200   46.8930  -12.5050 C.2   209  ASP209      0.2266
    170  O         17.5480   45.8460  -13.0610 O.2   209  ASP209     -0.2867
    171  CB        20.2380   47.7360  -12.7140 C.3   209  ASP209      0.1410
    172  CG        20.3210   47.0940  -14.0800 C.2   209  ASP209      0.3668
    173  OD1       20.5980   45.8680  -14.1610 O.co2 209  ASP209     -0.2456
    174  OD2       20.0670   47.8400  -15.0780 O.co2 209  ASP209     -0.2456
    175  N         19.5000   50.5410  -15.1060 N.3   212  GLU212     -0.1245
    176  CA        20.6660   51.1030  -14.4690 C.3   212  GLU212      0.1567
    177  C         20.3770   51.6920  -13.0820 C.2   212  GLU212      0.2260
    178  O         21.3400   52.1510  -12.4180 O.2   212  GLU212     -0.2867
    179  CB        21.4890   52.0780  -15.3060 C.3   212  GLU212      0.0388
    180  CG        21.8370   51.5430  -16.6840 C.3   212  GLU212      0.1160
    181  CD        22.5910   50.2420  -16.6790 C.2   212  GLU212      0.3649
    182  OE1       23.4420   50.0010  -15.7800 O.co2 212  GLU212     -0.2457
    183  OE2       22.3600   49.3940  -17.5940 O.co2 212  GLU212     -0.2457
    184  N         21.4340   49.9090   -8.3140 N.3   215  ARG215     -0.1245
    185  CA        22.5720   49.0070   -8.0960 C.3   215  ARG215      0.1563
    186  C         23.2230   49.2120   -6.7340 C.2   215  ARG215      0.2260
    187  O         23.6930   48.2400   -6.1290 O.2   215  ARG215     -0.2867
    188  CB        23.6110   49.1450   -9.2110 C.3   215  ARG215      0.0307
    189  CG        23.1280   48.7130  -10.5890 C.3   215  ARG215      0.0489
    190  CD        24.3050   48.4490  -11.5100 C.3   215  ARG215      0.2205
    191  NE        23.9530   48.3300  -12.9260 N.pl3 215  ARG215     -0.0865
    192  CZ        23.6240   47.2170  -13.5880 C.cat 215  ARG215      0.5346
    193  NH1       23.6020   46.0220  -12.9740 N.pl3 215  ARG215      0.1354
    194  NH2       23.3480   47.2730  -14.8810 N.pl3 215  ARG215      0.1354
@<TRIPOS>BOND
     1   135   137   ar
     2   135   133   ar
     3   137   136   ar
     4   133   132   ar
     5   136   134   ar
     6   134   132   ar
     7   132   131    1
     8    52    51    2
     9    61    60    2
    10   130   129    2
    11   131   128    1
    12    51    58   am
    13    51    50    1
    14    59    60    1
    15    59    58    1
    16    59    62    1
    17    48    46    1
    18    33    32    2
    19    63    62    1
    20    60    64   am
    21    53    50    1
    22    53    54    1
    23   128   129    1
    24   128   127    1
    25    49    50    1
    26    49    43   am
    27   129   138   am
    28    55    54    1
    29    55    56    1
    30   141   140    2
    31    57    56    1
    32    42    43    1
    33    42    45    1
    34    42    41    1
    35    36    37    1
    36    36    35    1
    37   138   139    1
    38    32    41   am
    39    32    31    1
    40    64    65    1
    41    43    44    2
    42   148   147    2
    43   139   140    1
    44   139   142    1
    45   140   145   am
    46    66    67    2
    47    66    65    1
    48    46    45    1
    49    46    47    1
    50    37    38    2
    51   127   125   am
    52   147   146    1
    53    65    68    1
    54   126   125    2
    55    34    31    1
    56    34    35    1
    57    30    31    1
    58   125   124    1
    59   121   120    1
    60   143   142    1
    61   145   146    1
    62    38    40    1
    63    38    39    1
    64   146   149    1
    65   142   144    1
    66   120   122    1
    67   120   117    1
    68   119   118    2
    69    68    69    1
    70    71    69   ar
    71    71    73   ar
    72    69    70   ar
    73   124   123    1
    74   118   123   am
    75   118   117    1
    76    70    72   ar
    77    73    74   ar
    78    72    74   ar
    79    74    75    1
    80   149   150    1
    81   117   116    1
    82   152   150    1
    83    12    11    2
    84     8     6    1
    85   150   151    1
    86   183   181   ar
    87   116   110   am
    88     7     5    1
    89    24    25    1
    90    24    23    1
    91    11    17   am
    92    11    10    1
    93   180   181    1
    94   180   179    1
    95   181   182   ar
    96     6     5    1
    97    15    14    1
    98    13    10    1
    99    13    14    1
   100     9    10    1
   101     9     3   am
   102     5     2    1
   103    84    82   ar
   104    17    18    1
   105    22    23    1
   106    22    21    1
   107   110   111    2
   108   110   109    1
   109     2     3    1
   110     2     1    1
   111    14    16    1
   112   166   165   ar
   113   166   164   ar
   114     3     4    2
   115   165   163   ar
   116   179   176    1
   117   114   113   ar
   118    82    81    1
   119    82    83   ar
   120   106   105    1
   121   175   176    1
   122   174   172   ar
   123   112   113    1
   124   112   109    1
   125    18    21    1
   126    18    19    1
   127   113   115   ar
   128   109   108    1
   129   108   103   am
   130   164   162   ar
   131   194   192    1
   132    81    80    1
   133   176   177    1
   134   163   160   ar
   135   173   172   ar
   136   172   171    1
   137   107   105    1
   138   105   102    1
   139   102   103    1
   140   102   101    1
   141    96    95    2
   142    26    19   am
   143    26    27    1
   144   103   104    2
   145   162   160   ar
   146   162   161   ar
   147    19    20    2
   148   192   193    1
   149   192   191    2
   150   160   158   ar
   151    80    77    1
   152   177   178    2
   153   170   169    2
   154   161   159   ar
   155   191   190    1
   156    95   101   am
   157    95    94    1
   158   171   168    1
   159    27    28    1
   160    92    90   ar
   161   169   168    1
   162    77    76    1
   163    77    78    1
   164   158   159   ar
   165   158   157    1
   166    99    97    1
   167   168   167    1
   168    28    29    2
   169   157   154    1
   170    90    91   ar
   171    90    89    1
   172    94    93    1
   173    94    97    1
   174   190   189    1
   175    93    87   am
   176    85    78   am
   177    85    86    1
   178    97    98    1
   179    98   100    1
   180    78    79    2
   181   189   188    1
   182   154   153    1
   183   154   155    1
   184    86    89    1
   185    86    87    1
   186    87    88    2
   187   155   156    2
   188   188   185    1
   189   184   185    1
   190   185   186    1
   191   186   187    2
