@<TRIPOS>MOLECULE
tmp/1fslB00.pdb
 194 185 0 0 0
SMALL
GASTEIGER

@<TRIPOS>ATOM
      1  N         13.3260   32.6200   20.0230 N.3    43  LEU43      -0.1231
      2  CA        13.9540   32.2740   21.3180 C.3    43  LEU43       0.1693
      3  C         14.8430   31.0430   21.1700 C.2    43  LEU43       0.2592
      4  O         15.9960   31.0270   21.6160 O.2    43  LEU43      -0.2718
      5  CB        12.8270   32.0120   22.3110 C.3    43  LEU43       0.0284
      6  CG        11.9640   33.1990   22.7000 C.3    43  LEU43       0.0019
      7  CD1       11.1150   32.7960   23.8730 C.3    43  LEU43       0.0001
      8  CD2       12.7910   34.4260   23.0110 C.3    43  LEU43       0.0001
      9  N         14.2620   30.0550   20.5190 N.am   44  PHE44      -0.1976
     10  CA        14.9270   28.7450   20.2850 C.3    44  PHE44       0.1639
     11  C         15.4750   28.7190   18.8620 C.2    44  PHE44       0.2290
     12  O         14.7900   28.5970   17.8750 O.2    44  PHE44      -0.2864
     13  CB        14.0180   27.6080   20.6850 C.3    44  PHE44       0.0560
     14  CG        13.4110   27.7700   22.0500 C.ar   44  PHE44      -0.0200
     15  CD1       14.1920   27.5810   23.1920 C.ar   44  PHE44      -0.0042
     16  CD2       12.0890   28.1870   22.1870 C.ar   44  PHE44      -0.0042
     17  CE1       13.6430   27.7620   24.4620 C.ar   44  PHE44      -0.0003
     18  CE2       11.5220   28.3730   23.4440 C.ar   44  PHE44      -0.0003
     19  CZ        12.2970   28.1610   24.5800 C.ar   44  PHE44      -0.0000
     20  N         17.1090   26.6940   17.2810 N.3    46  PHE46      -0.1241
     21  CA        16.9070   25.4540   16.5120 C.3    46  PHE46       0.1605
     22  C         15.4950   25.3130   15.9840 C.2    46  PHE46       0.2264
     23  O         15.1810   24.2490   15.3800 O.2    46  PHE46      -0.2867
     24  CB        17.3420   24.2200   17.3140 C.3    46  PHE46       0.0534
     25  CG        16.6690   24.0370   18.6310 C.ar   46  PHE46      -0.0203
     26  CD1       17.1740   24.6580   19.7740 C.ar   46  PHE46      -0.0042
     27  CD2       15.5200   23.2410   18.7360 C.ar   46  PHE46      -0.0042
     28  CE1       16.5490   24.4840   21.0120 C.ar   46  PHE46      -0.0003
     29  CE2       14.8750   23.0700   19.9490 C.ar   46  PHE46      -0.0003
     30  CZ        15.3930   23.6870   21.0910 C.ar   46  PHE46      -0.0000
     31  N         19.8800   19.2160   18.4510 N.3    57  LYS57      -0.1245
     32  CA        19.4600   20.0500   19.5870 C.3    57  LYS57       0.1561
     33  C         17.9810   19.8940   19.9050 C.2    57  LYS57       0.2260
     34  O         17.5990   20.1900   21.0640 O.2    57  LYS57      -0.2867
     35  CB        19.7050   21.5400   19.3120 C.3    57  LYS57       0.0271
     36  CG        21.1680   21.9670   19.3280 C.3    57  LYS57       0.0035
     37  CD        21.3020   23.4860   19.3500 C.3    57  LYS57       0.0206
     38  CE        20.8760   24.0860   20.6720 C.3    57  LYS57       0.1093
     39  NZ        20.9480   25.5700   20.6270 N.3    57  LYS57      -0.1314
     40  N         17.3040   18.9440   23.7510 N.3    61  HIS61      -0.1241
     41  CA        16.6180   19.9900   24.5290 C.3    61  HIS61       0.1621
     42  C         15.3160   19.4590   25.1230 C.2    61  HIS61       0.2264
     43  O         14.9770   19.7610   26.2720 O.2    61  HIS61      -0.2867
     44  CB        16.3530   21.1890   23.6240 C.3    61  HIS61       0.0745
     45  CG        17.4540   22.2000   23.6750 C.ar   61  HIS61       0.0817
     46  ND1       17.2770   23.4430   24.2370 N.ar   61  HIS61      -0.2268
     47  CD2       18.7500   22.0710   23.2360 C.ar   61  HIS61       0.1154
     48  CE1       18.4350   24.0430   24.1260 C.ar   61  HIS61       0.1986
     49  NE2       19.3620   23.2650   23.5280 N.ar   61  HIS61      -0.2212
     50  N         16.1860   16.8120   28.0660 N.3    64  LYS64      -0.1231
     51  CA        16.6710   17.4880   29.2850 C.3    64  LYS64       0.1693
     52  C         15.5240   18.1670   30.0310 C.2    64  LYS64       0.2591
     53  O         15.5460   18.2100   31.2780 O.2    64  LYS64      -0.2718
     54  CB        17.7290   18.5360   28.9510 C.3    64  LYS64       0.0285
     55  CG        18.3290   19.2070   30.1800 C.3    64  LYS64       0.0035
     56  CD        19.1820   20.4120   29.8010 C.3    64  LYS64       0.0206
     57  CE        20.3770   20.0370   28.9520 C.3    64  LYS64       0.1093
     58  NZ        21.4130   21.1020   28.9910 N.3    64  LYS64      -0.1314
     59  N         14.5470   18.6860   29.2940 N.am   65  LEU65      -0.1980
     60  CA        13.4100   19.4060   29.8910 C.3    65  LEU65       0.1596
     61  C         12.4550   18.4310   30.5780 C.2    65  LEU65       0.2287
     62  O         11.9640   18.7110   31.6840 O.2    65  LEU65      -0.2864
     63  CB        12.6560   20.1550   28.7880 C.3    65  LEU65       0.0297
     64  CG        11.4500   20.9610   29.2270 C.3    65  LEU65       0.0022
     65  CD1       11.3660   22.2190   28.4090 C.3    65  LEU65       0.0001
     66  CD2       10.1530   20.1870   29.1180 C.3    65  LEU65       0.0001
     67  N         14.0360   16.9510   33.6990 N.3    68  LEU68      -0.1231
     68  CA        13.9670   17.9080   34.8390 C.3    68  LEU68       0.1693
     69  C         12.6170   17.8380   35.5050 C.2    68  LEU68       0.2591
     70  O         12.5050   17.6940   36.7600 O.2    68  LEU68      -0.2718
     71  CB        14.2620   19.2710   34.2060 C.3    68  LEU68       0.0284
     72  CG        14.7960   20.3940   35.0780 C.3    68  LEU68       0.0019
     73  CD1       15.9610   19.9000   35.8810 C.3    68  LEU68       0.0001
     74  CD2       15.1810   21.5850   34.2220 C.3    68  LEU68       0.0001
     75  N         11.5530   17.8640   34.7220 N.am   69  VAL69      -0.1980
     76  CA        10.1950   17.7840   35.2960 C.3    69  VAL69       0.1595
     77  C         10.0410   16.4240   36.0020 C.2    69  VAL69       0.2287
     78  O          9.4870   16.4090   37.1270 O.2    69  VAL69      -0.2864
     79  CB         9.1110   18.0860   34.2680 C.3    69  VAL69       0.0276
     80  CG1        7.7230   18.0240   34.9030 C.3    69  VAL69       0.0022
     81  CG2        9.3140   19.4230   33.5780 C.3    69  VAL69       0.0022
     82  N         19.5410   27.4930   36.1190 N.3    88  LEU88      -0.1245
     83  CA        18.1810   27.2230   35.6180 C.3    88  LEU88       0.1561
     84  C         17.2810   28.4120   35.8960 C.2    88  LEU88       0.2260
     85  O         16.4470   28.7820   35.0220 O.2    88  LEU88      -0.2867
     86  CB        17.6560   25.9800   36.3330 C.3    88  LEU88       0.0270
     87  CG        16.2550   25.4980   35.9790 C.3    88  LEU88       0.0019
     88  CD1       16.2440   25.0750   34.5370 C.3    88  LEU88       0.0001
     89  CD2       15.7970   24.3850   36.8900 C.3    88  LEU88       0.0001
     90  N         18.4840   31.8010   33.6060 N.3    91  VAL91      -0.1231
     91  CA        18.2100   31.9190   32.1600 C.3    91  VAL91       0.1692
     92  C         16.7670   32.3700   31.9210 C.2    91  VAL91       0.2592
     93  O         16.4730   33.0200   30.8920 O.2    91  VAL91      -0.2718
     94  CB        18.5420   30.6160   31.4090 C.3    91  VAL91       0.0266
     95  CG1       17.8320   29.3920   31.9610 C.3    91  VAL91       0.0020
     96  CG2       18.2640   30.7800   29.9190 C.3    91  VAL91       0.0020
     97  N         15.9110   32.0250   32.8570 N.am   92  HIS92      -0.1976
     98  CA        14.4640   32.3230   32.7300 C.3    92  HIS92       0.1656
     99  C         14.1190   33.6760   33.3160 C.2    92  HIS92       0.2291
    100  O         12.9230   34.0010   33.4750 O.2    92  HIS92      -0.2864
    101  CB        13.6860   31.2040   33.4200 C.3    92  HIS92       0.0771
    102  CG        13.9080   29.8790   32.7670 C.ar   92  HIS92       0.0820
    103  ND1       14.7110   28.9120   33.3340 N.ar   92  HIS92      -0.2267
    104  CD2       13.4210   29.4330   31.5700 C.ar   92  HIS92       0.1154
    105  CE1       14.6830   27.9050   32.5010 C.ar   92  HIS92       0.1986
    106  NE2       13.9050   28.1490   31.4270 N.ar   92  HIS92      -0.2212
    107  N         14.9550   36.3570   31.7640 N.3    94  GLN94      -0.1245
    108  CA        14.7620   37.2080   30.5560 C.3    94  GLN94       0.1566
    109  C         13.2910   37.5460   30.3490 C.2    94  GLN94       0.2260
    110  O         12.3890   36.9790   30.9710 O.2    94  GLN94      -0.2867
    111  CB        15.4220   36.5470   29.3440 C.3    94  GLN94       0.0367
    112  CG        14.9960   35.1310   29.0210 C.3    94  GLN94       0.0905
    113  CD        15.7010   34.5940   27.7930 C.2    94  GLN94       0.2608
    114  OE1       15.4060   34.9480   26.6530 O.2    94  GLN94      -0.2717
    115  NE2       16.7090   33.7580   28.0280 N.am   94  GLN94      -0.0878
    116  N         11.3230   37.3210   27.8030 N.3    96  ALA96      -0.1231
    117  CA        10.4910   36.4000   27.0050 C.3    96  ALA96       0.1694
    118  C          9.7750   35.3770   27.8790 C.2    96  ALA96       0.2592
    119  O          8.7930   34.7510   27.4220 O.2    96  ALA96      -0.2718
    120  CB        11.3820   35.7010   25.9770 C.3    96  ALA96       0.0304
    121  N         10.2650   35.2130   29.0940 N.am   97  VAL97      -0.1966
    122  CA         9.7090   34.2220   30.0370 C.3    97  VAL97       0.1727
    123  C          8.5950   34.8320   30.8670 C.2    97  VAL97       0.2616
    124  O          8.8790   35.5450   31.8650 O.2    97  VAL97      -0.2715
    125  CB        10.8690   33.6360   30.8790 C.3    97  VAL97       0.0290
    126  CG1       10.3840   32.5730   31.8540 C.3    97  VAL97       0.0023
    127  CG2       12.0060   33.1120   30.0220 C.3    97  VAL97       0.0023
    128  N          7.3610   34.5210   30.5040 N.am   98  THR98      -0.1951
    129  CA         6.1790   35.0540   31.2150 C.3    98  THR98       0.1897
    130  C          5.2620   33.9360   31.6940 C.2    98  THR98       0.2313
    131  O          5.4030   32.7510   31.3220 O.2    98  THR98      -0.2863
    132  CB         5.4790   36.0490   30.2680 C.3    98  THR98       0.1794
    133  OG1        4.9460   35.2480   29.2360 O.3    98  THR98      -0.2208
    134  CG2        6.4120   37.0930   29.6880 C.3    98  THR98       0.0378
    135  N          3.4980   31.9790   29.0020 N.3   101  GLN101     -0.1231
    136  CA         4.4210   31.0690   28.2610 C.3   101  GLN101      0.1698
    137  C          4.6310   29.8010   29.0720 C.2   101  GLN101      0.2592
    138  O          4.7850   28.7020   28.4870 O.2   101  GLN101     -0.2718
    139  CB         5.6970   31.8080   27.9110 C.3   101  GLN101      0.0381
    140  CG         5.4610   32.8850   26.8650 C.3   101  GLN101      0.0905
    141  CD         4.7360   32.3790   25.6390 C.2   101  GLN101      0.2608
    142  OE1        5.0210   31.2990   25.1110 O.2   101  GLN101     -0.2717
    143  NE2        3.7560   33.1480   25.1710 N.am  101  GLN101     -0.0878
    144  N          4.5320   29.9270   30.3860 N.am  102  PHE102     -0.1976
    145  CA         4.6240   28.7700   31.2880 C.3   102  PHE102      0.1639
    146  C          3.4990   27.7730   30.9640 C.2   102  PHE102      0.2290
    147  O          3.7260   26.5530   31.0110 O.2   102  PHE102     -0.2864
    148  CB         4.6640   29.1170   32.7640 C.3   102  PHE102      0.0560
    149  CG         6.0130   29.4190   33.3420 C.ar  102  PHE102     -0.0200
    150  CD1        6.8530   28.3690   33.7270 C.ar  102  PHE102     -0.0042
    151  CD2        6.4380   30.7320   33.5260 C.ar  102  PHE102     -0.0042
    152  CE1        8.1060   28.6250   34.2870 C.ar  102  PHE102     -0.0003
    153  CE2        7.6910   31.0100   34.0670 C.ar  102  PHE102     -0.0003
    154  CZ         8.5240   29.9600   34.4440 C.ar  102  PHE102     -0.0000
    155  N          4.0560   26.0410   27.5780 N.3   105  VAL105     -0.1245
    156  CA         5.0530   24.9470   27.6990 C.3   105  VAL105      0.1561
    157  C          4.3960   23.7650   28.4190 C.2   105  VAL105      0.2260
    158  O          4.5870   22.5990   28.0220 O.2   105  VAL105     -0.2867
    159  CB         6.3540   25.4680   28.3190 C.3   105  VAL105      0.0252
    160  CG1        7.3940   24.3630   28.5000 C.3   105  VAL105      0.0019
    161  CG2        6.9600   26.6260   27.5420 C.3   105  VAL105      0.0019
    162  N          5.2790   20.0380   37.2500 N.3   133  TYR133     -0.1241
    163  CA         5.5650   21.1630   36.3460 C.3   133  TYR133      0.1605
    164  C          5.4030   22.4850   37.1220 C.2   133  TYR133      0.2264
    165  O          6.3470   23.2180   37.3160 O.2   133  TYR133     -0.2867
    166  CB         4.6670   21.1750   35.1040 C.3   133  TYR133      0.0534
    167  CG         4.9960   22.3100   34.1610 C.ar  133  TYR133     -0.0201
    168  CD1        4.4310   23.5700   34.3210 C.ar  133  TYR133     -0.0009
    169  CD2        5.9610   22.1420   33.1560 C.ar  133  TYR133     -0.0009
    170  CE1        4.7720   24.6280   33.4800 C.ar  133  TYR133      0.0417
    171  CE2        6.2900   23.1780   32.2930 C.ar  133  TYR133      0.0417
    172  CZ         5.6860   24.4210   32.4640 C.ar  133  TYR133      0.1957
    173  OH         6.0060   25.4760   31.6500 O.3   133  TYR133     -0.2866
    174  N          7.8420   23.2910   39.8230 N.3   136  LEU136     -0.1231
    175  CA         9.1980   23.6250   39.3220 C.3   136  LEU136      0.1693
    176  C          9.1870   24.9980   38.6470 C.2   136  LEU136      0.2591
    177  O         10.2000   25.7310   38.7030 O.2   136  LEU136     -0.2718
    178  CB         9.6270   22.5520   38.3340 C.3   136  LEU136      0.0284
    179  CG        10.8460   22.8530   37.4720 C.3   136  LEU136      0.0019
    180  CD1       12.0260   23.0940   38.3660 C.3   136  LEU136      0.0001
    181  CD2       11.1110   21.7430   36.4810 C.3   136  LEU136      0.0001
    182  N          8.0780   25.3260   38.0150 N.am  137  ALA137     -0.1980
    183  CA         7.9120   26.6510   37.3770 C.3   137  ALA137      0.1597
    184  C          8.0670   27.7130   38.4670 C.2   137  ALA137      0.2287
    185  O          8.7660   28.7170   38.3260 O.2   137  ALA137     -0.2864
    186  CB         6.5700   26.7350   36.6790 C.3   137  ALA137      0.0319
    187  N         11.5650   28.0170   39.3530 N.3   140  ILE140     -0.1245
    188  CA        12.2950   28.7950   38.3370 C.3   140  ILE140      0.1561
    189  C         11.9600   30.2790   38.4960 C.2   140  ILE140      0.2260
    190  O         12.8250   31.1450   38.3020 O.2   140  ILE140     -0.2867
    191  CB        11.9460   28.3600   36.9190 C.3   140  ILE140      0.0252
    192  CG1       12.6800   27.0700   36.6090 C.3   140  ILE140      0.0019
    193  CG2       12.2680   29.4520   35.9170 C.3   140  ILE140      0.0019
    194  CD1       12.3240   26.4110   35.2770 C.3   140  ILE140      0.0001
@<TRIPOS>BOND
     1    23    22    2
     2    22    21    1
     3    21    20    1
     4    21    24    1
     5    24    25    1
     6    12    11    2
     7    31    32    1
     8    25    27   ar
     9    25    26   ar
    10    27    29   ar
    11    11    10    1
    12    35    36    1
    13    35    32    1
    14    36    37    1
    15    37    38    1
    16    32    33    1
    17    26    28   ar
    18    33    34    2
    19    29    30   ar
    20     1     2    1
    21    10     9    1
    22    10    13    1
    23     9     3   am
    24    39    38    1
    25    13    14    1
    26    28    30   ar
    27     3     2    1
    28     3     4    2
    29     2     5    1
    30    14    16   ar
    31    14    15   ar
    32    16    18   ar
    33     5     6    1
    34     6     8    1
    35     6     7    1
    36    15    17   ar
    37    47    49   ar
    38    47    45   ar
    39    18    19   ar
    40    49    48   ar
    41    44    45    1
    42    44    41    1
    43    45    46   ar
    44    40    41    1
    45    48    46   ar
    46    17    19   ar
    47    41    42    1
    48   142   141    2
    49    42    43    2
    50   143   141   am
    51   141   140    1
    52   120   117    1
    53   114   113    2
    54   140   139    1
    55   117   116    1
    56   117   118    1
    57   119   118    2
    58   161   159    1
    59   155   156    1
    60   156   159    1
    61   156   157    1
    62   113   115   am
    63   113   112    1
    64   118   121   am
    65   139   136    1
    66   158   157    2
    67    50    51    1
    68   136   135    1
    69   136   137    1
    70   159   160    1
    71    65    64    1
    72   138   137    2
    73    63    64    1
    74    63    60    1
    75    54    51    1
    76    54    55    1
    77    57    58    1
    78    57    56    1
    79   112   111    1
    80   137   144   am
    81   121   122    1
    82    66    64    1
    83   133   132    1
    84    51    52    1
    85    59    60    1
    86    59    52   am
    87   111   108    1
    88   134   132    1
    89    56    55    1
    90    60    61    1
    91    96    94    1
    92   127   125    1
    93    52    53    2
    94   122   123    1
    95   122   125    1
    96   132   129    1
    97   109   108    1
    98   109   110    2
    99   144   145    1
   100   128   123   am
   101   128   129    1
   102   108   107    1
   103    61    62    2
   104   123   124    2
   105   125   126    1
   106    93    92    2
   107   146   147    2
   108   146   145    1
   109   129   130    1
   110   145   148    1
   111   131   130    2
   112    94    95    1
   113    94    91    1
   114   106   104   ar
   115   106   105   ar
   116   104   102   ar
   117   173   172    1
   118    92    91    1
   119    92    97   am
   120    91    90    1
   121   171   172   ar
   122   171   169   ar
   123   172   170   ar
   124   105   103   ar
   125    98    97    1
   126    98    99    1
   127    98   101    1
   128   148   149    1
   129   102   103   ar
   130   102   101    1
   131   169   167   ar
   132    99   100    2
   133   149   151   ar
   134   149   150   ar
   135   170   168   ar
   136   151   153   ar
   137    81    79    1
   138    67    68    1
   139   150   152   ar
   140   153   154   ar
   141   167   168   ar
   142   167   166    1
   143    71    68    1
   144    71    72    1
   145    74    72    1
   146    79    80    1
   147    79    76    1
   148   152   154   ar
   149    88    87    1
   150    75    76    1
   151    75    69   am
   152    68    69    1
   153    85    84    2
   154    72    73    1
   155   166   163    1
   156   194   192    1
   157    76    77    1
   158    69    70    2
   159    83    84    1
   160    83    82    1
   161    83    86    1
   162   193   191    1
   163    87    86    1
   164    87    89    1
   165    77    78    2
   166   163   164    1
   167   163   162    1
   168   181   179    1
   169   192   191    1
   170   186   183    1
   171   191   188    1
   172   164   165    2
   173   183   182    1
   174   183   184    1
   175   179   178    1
   176   179   180    1
   177   182   176   am
   178   190   189    2
   179   185   184    2
   180   178   175    1
   181   188   189    1
   182   188   187    1
   183   176   177    2
   184   176   175    1
   185   175   174    1
