@<TRIPOS>MOLECULE
tmp/1fsyB00.pdb
 119 109 0 0 0
SMALL
GASTEIGER

@<TRIPOS>ATOM
      1  N         76.4740    1.4620   29.3940 N.3    61  SER61      -0.1217
      2  CA        75.1390    1.9100   28.9940 C.3    61  SER61       0.1889
      3  C         74.1870    0.8970   28.3870 C.2    61  SER61       0.2288
      4  O         73.0200    1.2370   28.1540 O.2    61  SER61      -0.2866
      5  CB        75.2790    3.1040   28.0780 C.3    61  SER61       0.2089
      6  OG        75.6010    4.1870   28.9530 O.3    61  SER61      -0.2183
      7  N         71.0660    0.5560   30.1560 N.3    64  LYS64      -0.1245
      8  CA        69.9120    1.4070   29.9180 C.3    64  LYS64       0.1561
      9  C         68.7950    0.6130   29.2590 C.2    64  LYS64       0.2260
     10  O         67.6310    0.9810   29.3970 O.2    64  LYS64      -0.2867
     11  CB        70.2890    2.6140   29.0340 C.3    64  LYS64       0.0271
     12  CG        71.1870    3.6190   29.7710 C.3    64  LYS64       0.0035
     13  CD        71.6290    4.7230   28.8440 C.3    64  LYS64       0.0206
     14  CE        72.3480    5.8490   29.6130 C.3    64  LYS64       0.1093
     15  NZ        73.6630    5.4450   30.1120 N.3    64  LYS64      -0.1314
     16  N         74.9900   14.9070   30.6030 N.3   116  LEU116     -0.1231
     17  CA        75.5070   13.5860   30.2880 C.3   116  LEU116      0.1693
     18  C         75.8390   12.8400   31.5800 C.2   116  LEU116      0.2591
     19  O         75.4610   11.6800   31.7630 O.2   116  LEU116     -0.2718
     20  CB        76.7660   13.6800   29.4010 C.3   116  LEU116      0.0284
     21  CG        77.4970   12.3430   29.1700 C.3   116  LEU116      0.0019
     22  CD1       76.5600   11.3710   28.4510 C.3   116  LEU116      0.0001
     23  CD2       78.7450   12.5310   28.3410 C.3   116  LEU116      0.0001
     24  N         76.5320   13.5190   32.5050 N.am  117  GLN117     -0.1979
     25  CA        76.8840   12.8700   33.7500 C.3   117  GLN117      0.1601
     26  C         76.3540   13.6530   34.9360 C.2   117  GLN117      0.2287
     27  O         76.1750   14.8650   34.8610 O.2   117  GLN117     -0.2864
     28  CB        78.4080   12.7390   33.8780 C.3   117  GLN117      0.0394
     29  CG        79.0160   11.5980   33.0410 C.3   117  GLN117      0.0908
     30  CD        80.5290   11.7010   32.8960 C.2   117  GLN117      0.2608
     31  OE1       81.0560   12.6200   32.2540 O.2   117  GLN117     -0.2717
     32  NE2       81.2380   10.7520   33.4910 N.am  117  GLN117     -0.0878
     33  N         71.7460   12.7880   24.8800 N.3   147  TYR147     -0.1241
     34  CA        72.0030   11.5500   25.5920 C.3   147  TYR147      0.1605
     35  C         72.5250   11.8530   26.9830 C.2   147  TYR147      0.2264
     36  O         73.4440   12.6570   27.1430 O.2   147  TYR147     -0.2867
     37  CB        72.9890   10.7130   24.7960 C.3   147  TYR147      0.0534
     38  CG        73.3010    9.3940   25.3990 C.ar  147  TYR147     -0.0201
     39  CD1       74.5030    9.1950   26.0600 C.ar  147  TYR147     -0.0009
     40  CD2       72.4320    8.3080   25.2450 C.ar  147  TYR147     -0.0009
     41  CE1       74.8570    7.9470   26.5360 C.ar  147  TYR147      0.0417
     42  CE2       72.7660    7.0430   25.7340 C.ar  147  TYR147      0.0417
     43  CZ        73.9990    6.8810   26.3740 C.ar  147  TYR147      0.1957
     44  OH        74.4190    5.6800   26.8110 O.3   147  TYR147     -0.2866
     45  N         72.9870   10.2850   31.2600 N.3   149  ASN149     -0.1240
     46  CA        72.8030    9.3600   32.3650 C.3   149  ASN149      0.1653
     47  C         71.8850    9.9840   33.4020 C.2   149  ASN149      0.2266
     48  O         71.1090    9.2900   34.0540 O.2   149  ASN149     -0.2867
     49  CB        74.1240    9.0600   33.0590 C.3   149  ASN149      0.1155
     50  CG        75.0170    8.1690   32.2630 C.2   149  ASN149      0.2627
     51  OD1       74.5540    7.3540   31.4660 O.2   149  ASN149     -0.2716
     52  ND2       76.3390    8.2900   32.5020 N.am  149  ASN149     -0.0877
     53  N         84.3140   -0.1820   37.4710 N.3   208  VAL208     -0.1245
     54  CA        83.5430    1.0560   37.5540 C.3   208  VAL208      0.1561
     55  C         83.3810    1.4580   39.0250 C.2   208  VAL208      0.2260
     56  O         83.2210    0.5940   39.8840 O.2   208  VAL208     -0.2867
     57  CB        82.1390    0.8840   36.8870 C.3   208  VAL208      0.0252
     58  CG1       81.3530   -0.1840   37.6010 C.3   208  VAL208      0.0019
     59  CG2       81.4070    2.2190   36.8510 C.3   208  VAL208      0.0019
     60  N         74.1770    2.7030   34.1770 N.3   218  TYR218     -0.1241
     61  CA        75.3170    1.9830   33.6010 C.3   218  TYR218      0.1605
     62  C         75.9130    0.9110   34.5080 C.2   218  TYR218      0.2264
     63  O         77.0420    0.4630   34.2800 O.2   218  TYR218     -0.2867
     64  CB        76.4120    3.0000   33.2310 C.3   218  TYR218      0.0534
     65  CG        76.8810    3.8540   34.4140 C.ar  218  TYR218     -0.0201
     66  CD1       77.7360    3.3310   35.3790 C.ar  218  TYR218     -0.0009
     67  CD2       76.4570    5.1650   34.5590 C.ar  218  TYR218     -0.0009
     68  CE1       78.1650    4.1010   36.4670 C.ar  218  TYR218      0.0417
     69  CE2       76.8700    5.9530   35.6500 C.ar  218  TYR218      0.0417
     70  CZ        77.7300    5.4020   36.6000 C.ar  218  TYR218      0.1957
     71  OH        78.1500    6.1810   37.6880 O.3   218  TYR218     -0.2866
     72  N         81.0020    9.0810   19.3960 N.3   286  ASN286     -0.1240
     73  CA        80.5340    9.9910   20.4360 C.3   286  ASN286      0.1653
     74  C         80.4270   11.4360   20.0130 C.2   286  ASN286      0.2266
     75  O         79.6340   12.1680   20.6200 O.2   286  ASN286     -0.2867
     76  CB        81.4060    9.8620   21.6850 C.3   286  ASN286      0.1155
     77  CG        81.1840    8.5410   22.3810 C.2   286  ASN286      0.2627
     78  OD1       82.0590    8.0130   23.0500 O.2   286  ASN286     -0.2716
     79  ND2       79.9940    7.9720   22.1980 N.am  286  ASN286     -0.0877
     80  N         76.7610   11.8040   21.3720 N.3   290  LEU290     -0.1245
     81  CA        76.5850   12.6310   22.5700 C.3   290  LEU290      0.1561
     82  C         76.1880   14.0750   22.2740 C.2   290  LEU290      0.2260
     83  O         76.0980   14.8840   23.1920 O.2   290  LEU290     -0.2867
     84  CB        77.8740   12.6110   23.4090 C.3   290  LEU290      0.0270
     85  CG        78.4190   11.2270   23.7190 C.3   290  LEU290      0.0019
     86  CD1       79.7190   11.3160   24.5280 C.3   290  LEU290      0.0001
     87  CD2       77.3970   10.4580   24.4920 C.3   290  LEU290      0.0001
     88  N         79.6540    1.6550   27.5450 N.3   315  ALA315     -0.1231
     89  CA        81.0570    1.6900   27.9430 C.3   315  ALA315      0.1694
     90  C         81.2190    2.1750   29.3580 C.2   315  ALA315      0.2593
     91  O         80.3650    2.8920   29.8850 O.2   315  ALA315     -0.2718
     92  CB        81.8590    2.6090   27.0290 C.3   315  ALA315      0.0304
     93  N         82.3060    1.7370   29.9750 N.am  316  THR316     -0.1939
     94  CA        82.6590    2.2700   31.2870 C.3   316  THR316      0.2028
     95  C         84.1280    2.6280   31.0770 C.2   316  THR316      0.2642
     96  O         84.6440    2.5440   29.9600 O.2   316  THR316     -0.2714
     97  CB        82.5420    1.2580   32.4250 C.3   316  THR316      0.1808
     98  OG1       83.3140    0.1000   32.1050 O.3   316  THR316     -0.2208
     99  CG2       81.0600    0.8720   32.6790 C.3   316  THR316      0.0379
    100  N         84.8210    3.0500   32.1340 N.am  317  GLY317     -0.1954
    101  CA        86.2120    3.3990   31.9230 C.3   317  GLY317      0.1869
    102  C         87.0290    2.2820   31.2940 C.2   317  GLY317      0.2309
    103  O         87.8920    2.5510   30.4590 O.2   317  GLY317     -0.2863
    104  N         87.4800   -0.1460   26.6280 N.3   340  ASN340     -0.1240
    105  CA        86.5510    0.7920   25.9930 C.3   340  ASN340      0.1653
    106  C         87.1770    1.2570   24.6490 C.2   340  ASN340      0.2266
    107  O         87.8770    2.2870   24.5960 O.2   340  ASN340     -0.2867
    108  CB        86.3200    2.0090   26.9070 C.3   340  ASN340      0.1155
    109  CG        85.4920    3.1120   26.2480 C.2   340  ASN340      0.2627
    110  OD1       85.4770    4.2600   26.7180 O.2   340  ASN340     -0.2716
    111  ND2       84.7990    2.7770   25.1720 N.am  340  ASN340     -0.0877
    112  N         83.4430    3.1480   19.4200 N.3   343  ASN343     -0.1240
    113  CA        82.1240    2.6450   19.0280 C.3   343  ASN343      0.1653
    114  C         81.9870    2.2680   17.5420 C.2   343  ASN343      0.2266
    115  O         81.3780    1.2590   17.2110 O.2   343  ASN343     -0.2867
    116  CB        81.0400    3.6730   19.3280 C.3   343  ASN343      0.1155
    117  CG        80.7390    3.7860   20.8000 C.2   343  ASN343      0.2627
    118  OD1       80.7470    2.7810   21.5200 O.2   343  ASN343     -0.2716
    119  ND2       80.4520    5.0050   21.2570 N.am  343  ASN343     -0.0877
@<TRIPOS>BOND
     1   115   114    2
     2   114   113    1
     3   113   116    1
     4   113   112    1
     5   116   117    1
     6    72    73    1
     7    74    73    1
     8    74    75    2
     9    73    76    1
    10   117   119   am
    11   117   118    2
    12    80    81    1
    13    76    77    1
    14    79    77   am
    15    82    81    1
    16    82    83    2
    17    77    78    2
    18    81    84    1
    19    84    85    1
    20    85    87    1
    21    85    86    1
    22   107   106    2
    23   106   105    1
    24    37    38    1
    25    37    34    1
    26    33    34    1
    27   111   109   am
    28    40    38   ar
    29    40    42   ar
    30    38    39   ar
    31    34    35    1
    32    42    43   ar
    33   105   104    1
    34   105   108    1
    35    39    41   ar
    36   109   110    2
    37   109   108    1
    38    43    41   ar
    39    43    44    1
    40    35    36    2
    41    92    89    1
    42    88    89    1
    43    89    90    1
    44     5     6    1
    45     5     2    1
    46     4     3    2
    47    23    21    1
    48     3     2    1
    49    22    21    1
    50    13    14    1
    51    13    12    1
    52     2     1    1
    53    11    12    1
    54    11     8    1
    55    21    20    1
    56     9    10    2
    57     9     8    1
    58    90    91    2
    59    90    93   am
    60    20    17    1
    61    14    15    1
    62     8     7    1
    63    96    95    2
    64    93    94    1
    65    17    16    1
    66    17    18    1
    67   103   102    2
    68    95    94    1
    69    95   100   am
    70    45    46    1
    71    94    97    1
    72   102   101    1
    73    51    50    2
    74    18    19    2
    75    18    24   am
    76   101   100    1
    77    98    97    1
    78    31    30    2
    79    50    52   am
    80    50    49    1
    81    46    49    1
    82    46    47    1
    83    97    99    1
    84    24    25    1
    85    30    29    1
    86    30    32   am
    87    29    28    1
    88    64    61    1
    89    64    65    1
    90    47    48    2
    91    61    60    1
    92    61    62    1
    93    25    28    1
    94    25    26    1
    95    63    62    2
    96    65    67   ar
    97    65    66   ar
    98    67    69   ar
    99    27    26    2
   100    66    68   ar
   101    69    70   ar
   102    68    70   ar
   103    70    71    1
   104    59    57    1
   105    57    54    1
   106    57    58    1
   107    53    54    1
   108    54    55    1
   109    55    56    2
