@<TRIPOS>MOLECULE
tmp/1ft5A00.pdb
 234 226 0 0 0
SMALL
GASTEIGER

@<TRIPOS>ATOM
      1  N        107.3180   54.6950   12.0400 N.3     6  GLU6       -0.1231
      2  CA       108.6420   54.4510   12.5890 C.3     6  GLU6        0.1699
      3  C        109.7880   54.9600   11.7080 C.2     6  GLU6        0.2592
      4  O        110.9260   55.0770   12.1780 O.2     6  GLU6       -0.2718
      5  CB       108.9220   52.9790   12.8440 C.3     6  GLU6        0.0402
      6  CG       108.3480   52.3850   14.0460 C.3     6  GLU6        0.1161
      7  CD       108.7940   50.9290   14.1240 C.2     6  GLU6        0.3649
      8  OE1      109.4300   50.5730   15.1400 O.co2   6  GLU6       -0.2457
      9  OE2      108.5360   50.1770   13.1300 O.co2   6  GLU6       -0.2457
     10  N        109.5210   55.2570   10.4360 N.am    7  GLY7       -0.1957
     11  CA       110.6330   55.6770    9.6050 C.3     7  GLY7        0.1869
     12  C        110.9420   54.6740    8.5180 C.2     7  GLY7        0.2309
     13  O        110.4700   53.5590    8.5750 O.2     7  GLY7       -0.2863
     14  N        113.8080   50.3300    8.4020 N.3    10  LYS10      -0.1231
     15  CA       113.6230   48.8720    8.2730 C.3    10  LYS10       0.1693
     16  C        112.9930   48.5410    6.9310 C.2    10  LYS10       0.2592
     17  O        113.3360   47.5210    6.3130 O.2    10  LYS10      -0.2718
     18  CB       112.8110   48.2990    9.4450 C.3    10  LYS10       0.0285
     19  CG       113.6230   48.3230   10.7880 C.3    10  LYS10       0.0035
     20  CD       112.7440   48.4600   12.0040 C.3    10  LYS10       0.0206
     21  CE       113.4600   49.3040   13.0890 C.3    10  LYS10       0.1093
     22  NZ       113.1570   50.7710   12.9140 N.3    10  LYS10      -0.1314
     23  N        112.0720   49.3730    6.4420 N.am   11  CYS11      -0.1970
     24  CA       111.5470   49.0430    5.1340 C.3    11  CYS11       0.1712
     25  C        112.6590   48.9740    4.0990 C.2    11  CYS11       0.2296
     26  O        112.6480   48.0900    3.2290 O.2    11  CYS11      -0.2864
     27  CB       110.5550   50.1340    4.6270 C.3    11  CYS11       0.0983
     28  SG       109.3790   50.7990    5.8370 S.3    11  CYS11      -0.0798
     29  N        115.7750   48.3560    4.4240 N.3    13  SER13      -0.1202
     30  CA       116.7510   47.2730    4.5920 C.3    13  SER13       0.2020
     31  C        116.2430   45.9700    3.9790 C.2    13  SER13       0.2619
     32  O        117.0560   45.1780    3.4610 O.2    13  SER13      -0.2717
     33  CB       117.0980   47.1030    6.0670 C.3    13  SER13       0.2103
     34  OG       116.0390   46.4860    6.7510 O.3    13  SER13      -0.2182
     35  N        114.9400   45.7340    4.0150 N.am   14  CYS14      -0.1955
     36  CA       114.3630   44.5330    3.4010 C.3    14  CYS14       0.1843
     37  C        113.9820   44.7280    1.9690 C.2    14  CYS14       0.2625
     38  O        113.7610   43.7410    1.2620 O.2    14  CYS14      -0.2714
     39  CB       113.1160   44.0660    4.1070 C.3    14  CYS14       0.0997
     40  SG       113.5680   43.2920    5.7120 S.3    14  CYS14      -0.0797
     41  N        113.8580   45.9960    1.5320 N.am   15  HIS15      -0.1973
     42  CA       113.4140   46.2840    0.1870 C.3    15  HIS15       0.1656
     43  C        114.3850   47.2070   -0.4540 C.2    15  HIS15       0.2291
     44  O        114.0520   48.3710   -0.8000 O.2    15  HIS15      -0.2864
     45  CB       112.0210   46.9150    0.2770 C.3    15  HIS15       0.0771
     46  CG       110.9870   45.9820    0.8200 C.ar   15  HIS15       0.0820
     47  ND1      110.6090   44.8240    0.1740 N.ar   15  HIS15      -0.2267
     48  CD2      110.1810   46.0670    1.9200 C.ar   15  HIS15       0.1154
     49  CE1      109.5900   44.2910    0.8610 C.ar   15  HIS15       0.1986
     50  NE2      109.2620   44.9830    1.9690 N.ar   15  HIS15      -0.2212
     51  N        108.5650   55.8080    2.6790 N.3    88  CYS88      -0.1221
     52  CA       107.7480   54.6130    2.4660 C.3    88  CYS88       0.1808
     53  C        106.3900   54.6060    3.1100 C.2    88  CYS88       0.2601
     54  O        105.4010   54.2090    2.5650 O.2    88  CYS88      -0.2717
     55  CB       108.5730   53.3870    2.9910 C.3    88  CYS88       0.0970
     56  SG       110.3000   53.3750    2.5830 S.3    88  CYS88      -0.0800
     57  N        106.3400   55.0030    4.4000 N.am   89  GLU89      -0.1979
     58  CA       105.1130   54.9420    5.1390 C.3    89  GLU89       0.1602
     59  C        104.1170   56.0370    4.7030 C.2    89  GLU89       0.2287
     60  O        102.9510   55.8930    4.9550 O.2    89  GLU89      -0.2864
     61  CB       105.4140   55.1250    6.6060 C.3    89  GLU89       0.0415
     62  CG       106.1990   53.9260    7.2410 C.3    89  GLU89       0.1163
     63  CD       106.7450   54.3150    8.6070 C.2    89  GLU89       0.3649
     64  OE1      107.5240   55.2560    8.6950 O.co2  89  GLU89      -0.2457
     65  OE2      106.3220   53.6930    9.6130 O.co2  89  GLU89      -0.2457
     66  N        102.5830   53.7100    1.9680 N.3    92  HIS92      -0.1241
     67  CA       102.1750   52.3880    2.3950 C.3    92  HIS92       0.1621
     68  C        101.5630   52.3010    3.7770 C.2    92  HIS92       0.2264
     69  O        101.1140   51.2330    4.1730 O.2    92  HIS92      -0.2867
     70  CB       103.4190   51.4720    2.3380 C.3    92  HIS92       0.0745
     71  CG       103.8920   51.2690    0.9410 C.ar   92  HIS92       0.0817
     72  ND1      103.2070   50.4800    0.0450 N.ar   92  HIS92      -0.2268
     73  CD2      104.9620   51.7700    0.2780 C.ar   92  HIS92       0.1154
     74  CE1      103.8720   50.5380   -1.1150 C.ar   92  HIS92       0.1986
     75  NE2      104.9430   51.2950   -1.0450 N.ar   92  HIS92      -0.2212
     76  N        104.1430   51.9140    9.6470 N.3    95  GLY95      -0.1225
     77  CA       104.5940   50.5200    9.6750 C.3    95  GLY95       0.1811
     78  C        105.0210   49.8770   10.9550 C.2    95  GLY95       0.2280
     79  O        105.4200   48.6970   10.9150 O.2    95  GLY95      -0.2866
     80  N        102.8340   46.5610   11.1320 N.3    98  PHE98      -0.1227
     81  CA       102.8560   45.5770   10.0590 C.3    98  PHE98       0.1736
     82  C        104.2140   45.1040    9.6470 C.2    98  PHE98       0.2595
     83  O        104.3100   43.9940    9.0810 O.2    98  PHE98      -0.2718
     84  CB       101.9850   46.0460    8.8270 C.3    98  PHE98       0.0547
     85  CG       102.5800   47.1650    7.9450 C.ar   98  PHE98      -0.0202
     86  CD1      103.7500   46.9620    7.1950 C.ar   98  PHE98      -0.0042
     87  CD2      101.9090   48.4180    7.7850 C.ar   98  PHE98      -0.0042
     88  CE1      104.2680   47.8980    6.3190 C.ar   98  PHE98      -0.0003
     89  CE2      102.4380   49.3830    6.8830 C.ar   98  PHE98      -0.0003
     90  CZ       103.5910   49.1350    6.1610 C.ar   98  PHE98      -0.0000
     91  N        105.2690   45.8580    9.9340 N.am   99  ARG99      -0.1980
     92  CA       106.5950   45.5020    9.4770 C.3    99  ARG99       0.1597
     93  C        107.0630   44.1650   10.0370 C.2    99  ARG99       0.2287
     94  O        107.7490   43.4250    9.3380 O.2    99  ARG99      -0.2864
     95  CB       107.5940   46.5860    9.8050 C.3    99  ARG99       0.0334
     96  CG       107.9110   46.7230   11.2600 C.3    99  ARG99       0.0492
     97  CD       109.3080   47.3040   11.3890 C.3    99  ARG99       0.2205
     98  NE       109.5030   47.9290   12.6850 N.pl3  99  ARG99      -0.0865
     99  CZ       109.9840   47.2850   13.7370 C.cat  99  ARG99       0.5346
    100  NH1      110.3130   45.9930   13.6140 N.pl3  99  ARG99       0.1354
    101  NH2      110.0920   47.9040   14.9070 N.pl3  99  ARG99       0.1354
    102  N        105.7300   41.4260    7.9620 N.3   102  HIS102     -0.1226
    103  CA       106.4780   41.1860    6.6870 C.3   102  HIS102      0.1752
    104  C        107.6310   40.2210    6.9900 C.2   102  HIS102      0.2595
    105  O        107.8940   39.2990    6.1950 O.2   102  HIS102     -0.2718
    106  CB       107.0460   42.4670    6.0670 C.3   102  HIS102      0.0759
    107  CG       105.9720   43.3330    5.4980 C.ar  102  HIS102      0.0818
    108  ND1      106.2080   44.2730    4.4940 N.ar  102  HIS102     -0.2268
    109  CD2      104.6720   43.3830    5.8780 C.ar  102  HIS102      0.1154
    110  CE1      105.0130   44.8550    4.3170 C.ar  102  HIS102      0.1986
    111  NE2      104.0670   44.3680    5.1130 N.ar  102  HIS102     -0.2212
    112  N        108.3030   40.4030    8.1370 N.am  103  ARG103     -0.1980
    113  CA       109.4180   39.5160    8.5210 C.3   103  ARG103      0.1597
    114  C        108.9020   38.1060    8.8160 C.2   103  ARG103      0.2287
    115  O        109.3990   37.1030    8.2320 O.2   103  ARG103     -0.2864
    116  CB       110.1160   40.0460    9.7900 C.3   103  ARG103      0.0334
    117  CG       111.3400   39.2000   10.1560 C.3   103  ARG103      0.0492
    118  CD       111.7430   39.2620   11.6570 C.3   103  ARG103      0.2205
    119  NE       111.5370   37.9540   12.2960 N.pl3 103  ARG103     -0.0865
    120  CZ       112.4840   37.2500   12.9240 C.cat 103  ARG103      0.5346
    121  NH1      113.7240   37.7250   13.0070 N.pl3 103  ARG103      0.1354
    122  NH2      112.1940   36.0520   13.4460 N.pl3 103  ARG103      0.1354
    123  N        107.4220   36.4260    5.6720 N.3   106  GLY106     -0.1225
    124  CA       108.5030   36.1430    4.7340 C.3   106  GLY106      0.1811
    125  C        109.2250   34.8580    5.1770 C.2   106  GLY106      0.2280
    126  O        109.5420   34.0110    4.3570 O.2   106  GLY106     -0.2866
    127  N         96.5550   39.4830    2.7880 N.3   118  ARG118     -0.1245
    128  CA        96.8080   40.9340    2.9000 C.3   118  ARG118      0.1563
    129  C         95.8600   41.5140    3.9630 C.2   118  ARG118      0.2260
    130  O         96.1740   42.5420    4.5640 O.2   118  ARG118     -0.2867
    131  CB        96.5220   41.6290    1.5630 C.3   118  ARG118      0.0307
    132  CG        97.6430   41.4830    0.5500 C.3   118  ARG118      0.0489
    133  CD        97.3500   42.3700   -0.6750 C.3   118  ARG118      0.2205
    134  NE        98.4710   42.1810   -1.5360 N.pl3 118  ARG118     -0.0865
    135  CZ        98.4880   41.2530   -2.4800 C.cat 118  ARG118      0.5346
    136  NH1       97.4270   40.4780   -2.6680 N.pl3 118  ARG118      0.1354
    137  NH2       99.6030   41.0000   -3.1200 N.pl3 118  ARG118      0.1354
    138  N         97.5910   42.2680    7.0450 N.3   121  LEU121     -0.1245
    139  CA        98.4080   43.4910    6.9860 C.3   121  LEU121      0.1561
    140  C         97.5390   44.7350    7.0410 C.2   121  LEU121      0.2260
    141  O         97.9290   45.7190    7.6940 O.2   121  LEU121     -0.2867
    142  CB        99.2270   43.5470    5.6870 C.3   121  LEU121      0.0270
    143  CG       100.1730   42.3490    5.4790 C.3   121  LEU121      0.0019
    144  CD1      100.7720   42.5190    4.1230 C.3   121  LEU121      0.0001
    145  CD2      101.2650   42.3210    6.5340 C.3   121  LEU121      0.0001
    146  N         98.4720   48.6330    7.1170 N.3   126  GLN126     -0.1245
    147  CA        99.0760   48.8270    5.7840 C.3   126  GLN126      0.1566
    148  C         98.0030   49.2950    4.8110 C.2   126  GLN126      0.2260
    149  O         96.8570   48.8730    4.8440 O.2   126  GLN126     -0.2867
    150  CB        99.7550   47.5120    5.2970 C.3   126  GLN126      0.0367
    151  CG       100.5220   47.7380    3.9720 C.3   126  GLN126      0.0905
    152  CD       101.5030   46.6440    3.6500 C.2   126  GLN126      0.2608
    153  OE1      101.7720   45.7850    4.5390 O.2   126  GLN126     -0.2717
    154  NE2      102.0590   46.6460    2.4790 N.am  126  GLN126     -0.0878
    155  N         96.6310   49.5620    0.9930 N.3   128  PHE128     -0.1241
    156  CA        96.6650   48.9560   -0.3300 C.3   128  PHE128      0.1605
    157  C         95.8250   49.7180   -1.3160 C.2   128  PHE128      0.2264
    158  O         95.5270   49.1870   -2.3810 O.2   128  PHE128     -0.2867
    159  CB        96.1480   47.5110   -0.2380 C.3   128  PHE128      0.0534
    160  CG        96.9960   46.6670    0.6600 C.ar  128  PHE128     -0.0203
    161  CD1       98.1430   46.0660    0.1570 C.ar  128  PHE128     -0.0042
    162  CD2       96.6700   46.4890    2.0180 C.ar  128  PHE128     -0.0042
    163  CE1       98.9740   45.2960    0.9670 C.ar  128  PHE128     -0.0003
    164  CE2       97.5050   45.7010    2.8610 C.ar  128  PHE128     -0.0003
    165  CZ        98.6660   45.1010    2.3360 C.ar  128  PHE128     -0.0000
    166  N         95.9020   53.6660   -1.2640 N.3   130  PHE130     -0.1241
    167  CA        96.7080   54.8770   -1.4750 C.3   130  PHE130      0.1605
    168  C         96.0730   56.2480   -1.8010 C.2   130  PHE130      0.2264
    169  O         96.6470   57.2680   -1.4170 O.2   130  PHE130     -0.2867
    170  CB        97.7410   54.6570   -2.6340 C.3   130  PHE130      0.0534
    171  CG        98.5790   53.3970   -2.4900 C.ar  130  PHE130     -0.0203
    172  CD1       98.2620   52.2210   -3.2280 C.ar  130  PHE130     -0.0042
    173  CD2       99.6140   53.3510   -1.5930 C.ar  130  PHE130     -0.0042
    174  CE1       98.9980   51.0240   -3.0360 C.ar  130  PHE130     -0.0003
    175  CE2      100.3620   52.1440   -1.3930 C.ar  130  PHE130     -0.0003
    176  CZ       100.0620   51.0130   -2.0950 C.ar  130  PHE130     -0.0000
    177  N        109.5480   42.5570   -9.1280 N.3   183  LYS183     -0.1231
    178  CA       108.7530   41.3290   -9.0110 C.3   183  LYS183      0.1693
    179  C        108.6860   40.7480   -7.5970 C.2   183  LYS183      0.2592
    180  O        109.7370   40.6310   -6.9550 O.2   183  LYS183     -0.2718
    181  CB       109.3970   40.2800   -9.9250 C.3   183  LYS183      0.0285
    182  CG       109.1820   40.5860  -11.3850 C.3   183  LYS183      0.0035
    183  CD       107.8120   40.1780  -11.9070 C.3   183  LYS183      0.0206
    184  CE       107.0920   39.2210  -10.9640 C.3   183  LYS183      0.1093
    185  NZ       105.6170   39.1680  -11.2460 N.3   183  LYS183     -0.1314
    186  N        107.4700   40.4150   -7.1550 N.am  184  LEU184     -0.1966
    187  CA       107.2220   39.8180   -5.8490 C.3   184  LEU184      0.1728
    188  C        107.0770   38.2960   -6.0310 C.2   184  LEU184      0.2616
    189  O        106.5700   37.8340   -7.0630 O.2   184  LEU184     -0.2715
    190  CB       105.9070   40.3110   -5.2750 C.3   184  LEU184      0.0311
    191  CG       105.9470   41.8300   -4.8770 C.3   184  LEU184      0.0022
    192  CD1      104.4930   42.3210   -4.6510 C.3   184  LEU184      0.0001
    193  CD2      106.7960   42.0320   -3.6130 C.3   184  LEU184      0.0001
    194  N        107.5330   37.5410   -5.0330 N.am  185  GLU185     -0.1963
    195  CA       107.3400   36.0720   -5.0600 C.3   185  GLU185      0.1733
    196  C        105.8830   35.7360   -4.7550 C.2   185  GLU185      0.2617
    197  O        105.3390   34.7150   -5.2230 O.2   185  GLU185     -0.2715
    198  CB       108.2560   35.4220   -4.0360 C.3   185  GLU185      0.0429
    199  CG       109.6980   35.5240   -4.4160 C.3   185  GLU185      0.1163
    200  CD       110.0220   34.7760   -5.7230 C.2   185  GLU185      0.3649
    201  OE1      109.2370   33.8900   -6.1530 O.co2 185  GLU185     -0.2457
    202  OE2      111.0700   35.0800   -6.3210 O.co2 185  GLU185     -0.2457
    203  N        105.2230   36.5740   -3.9630 N.am  186  GLY186     -0.1940
    204  CA       103.8250   36.3490   -3.6780 C.3   186  GLY186      0.2014
    205  C        103.5100   35.8440   -2.2850 C.2   186  GLY186      0.2639
    206  O        102.5850   35.0490   -2.0990 O.2   186  GLY186     -0.2714
    207  N        104.2800   36.2960   -1.3090 N.am  187  VAL187     -0.1963
    208  CA       104.0800   35.9220    0.0870 C.3   187  VAL187      0.1727
    209  C        102.6590   36.3270    0.4810 C.2   187  VAL187      0.2616
    210  O        101.9640   35.5840    1.1640 O.2   187  VAL187     -0.2715
    211  CB       105.0770   36.6730    0.9930 C.3   187  VAL187      0.0290
    212  CG1      104.7380   36.4640    2.4890 C.3   187  VAL187      0.0023
    213  CG2      106.4990   36.2300    0.6700 C.3   187  VAL187      0.0023
    214  N        102.1910   37.5240    0.0890 N.am  188  PHE188     -0.1974
    215  CA       100.8530   37.9330    0.4840 C.3   188  PHE188      0.1639
    216  C         99.8490   37.7060   -0.5920 C.2   188  PHE188      0.2290
    217  O        100.1870   37.8150   -1.7730 O.2   188  PHE188     -0.2864
    218  CB       100.9010   39.4240    0.9110 C.3   188  PHE188      0.0560
    219  CG       101.7770   39.6550    2.1120 C.ar  188  PHE188     -0.0200
    220  CD1      103.0370   40.1830    1.9670 C.ar  188  PHE188     -0.0042
    221  CD2      101.3550   39.2230    3.3840 C.ar  188  PHE188     -0.0042
    222  CE1      103.9090   40.2930    3.0560 C.ar  188  PHE188     -0.0003
    223  CE2      102.2180   39.3220    4.4850 C.ar  188  PHE188     -0.0003
    224  CZ       103.4690   39.8450    4.3280 C.ar  188  PHE188     -0.0000
    225  N         97.8310   46.4050   -8.8880 N.3   197  HIS197     -0.1241
    226  CA        98.9030   45.4840   -8.4900 C.3   197  HIS197      0.1621
    227  C         99.3000   44.4290   -9.5810 C.2   197  HIS197      0.2264
    228  O        100.4710   44.2600   -9.8760 O.2   197  HIS197     -0.2867
    229  CB        98.4290   44.7080   -7.2240 C.3   197  HIS197      0.0745
    230  CG        99.4420   43.7180   -6.7200 C.ar  197  HIS197      0.0817
    231  ND1      100.4290   44.0440   -5.8210 N.ar  197  HIS197     -0.2268
    232  CD2       99.6180   42.3980   -7.0080 C.ar  197  HIS197      0.1154
    233  CE1      101.1750   42.9760   -5.5720 C.ar  197  HIS197      0.1986
    234  NE2      100.7020   41.9620   -6.2850 N.ar  197  HIS197     -0.2212
@<TRIPOS>BOND
     1   183   182    1
     2   183   184    1
     3   182   181    1
     4   185   184    1
     5   181   178    1
     6   228   227    2
     7   227   226    1
     8   177   178    1
     9   178   179    1
    10   225   226    1
    11   226   229    1
    12   179   186   am
    13   179   180    2
    14   229   230    1
    15   186   187    1
    16   189   188    2
    17   232   230   ar
    18   232   234   ar
    19   230   231   ar
    20   202   200   ar
    21   234   233   ar
    22   201   200   ar
    23   188   187    1
    24   188   194   am
    25   187   190    1
    26   231   233   ar
    27   200   199    1
    28   190   191    1
    29   197   196    2
    30   195   194    1
    31   195   196    1
    32   195   198    1
    33   191   192    1
    34   191   193    1
    35   196   203   am
    36   199   198    1
    37   203   204    1
    38   204   205    1
    39   172   174   ar
    40   172   171   ar
    41   137   135    1
    42   174   176   ar
    43   136   135    1
    44   170   171    1
    45   170   167    1
    46   171   173   ar
    47   135   134    2
    48   158   157    2
    49   205   206    2
    50   205   207   am
    51   176   175   ar
    52   168   167    1
    53   168   169    2
    54   217   216    2
    55   173   175   ar
    56   134   133    1
    57   167   166    1
    58   157   156    1
    59   207   208    1
    60    74    75   ar
    61    74    72   ar
    62    75    73   ar
    63    44    43    2
    64   133   132    1
    65   216   215    1
    66    43    42    1
    67   156   159    1
    68   156   155    1
    69   159   160    1
    70    72    71   ar
    71   208   209    1
    72   208   211    1
    73   214   209   am
    74   214   215    1
    75   161   160   ar
    76   161   163   ar
    77    47    46   ar
    78    47    49   ar
    79    42    45    1
    80    42    41    1
    81    45    46    1
    82    73    71   ar
    83   209   210    2
    84   215   218    1
    85   132   131    1
    86   160   162   ar
    87   213   211    1
    88    46    48   ar
    89    49    50   ar
    90   218   219    1
    91    71    70    1
    92   163   165   ar
    93   211   212    1
    94    38    37    2
    95    41    37   am
    96   131   128    1
    97    48    50   ar
    98   220   219   ar
    99   220   222   ar
   100    66    67    1
   101    37    36    1
   102   162   164   ar
   103   219   221   ar
   104   165   164   ar
   105    70    67    1
   106    67    68    1
   107    52    51    1
   108    52    55    1
   109    52    53    1
   110   154   152   am
   111    54    53    2
   112    56    55    1
   113   127   128    1
   114   128   129    1
   115   222   224   ar
   116    53    57   am
   117    26    25    2
   118   221   223   ar
   119    36    35    1
   120    36    39    1
   121    32    31    2
   122   152   151    1
   123   152   153    2
   124    68    69    2
   125   129   130    2
   126   151   150    1
   127    31    35   am
   128    31    30    1
   129    25    24    1
   130    39    40    1
   131   144   143    1
   132   110   108   ar
   133   110   111   ar
   134   224   223   ar
   135   126   125    2
   136    57    58    1
   137    29    30    1
   138   108   107   ar
   139    30    33    1
   140    27    24    1
   141    27    28    1
   142    59    60    2
   143    59    58    1
   144   124   125    1
   145   124   123    1
   146   148   149    2
   147   148   147    1
   148   111   109   ar
   149    24    23    1
   150    58    61    1
   151   150   147    1
   152   143   142    1
   153   143   145    1
   154   107   109   ar
   155   107   106    1
   156   142   139    1
   157   147   146    1
   158    33    34    1
   159   106   103    1
   160    90    88   ar
   161    90    89   ar
   162   105   104    2
   163    17    16    2
   164    88    86   ar
   165    23    16   am
   166    61    62    1
   167   103   104    1
   168   103   102    1
   169    89    87   ar
   170    16    15    1
   171   139   140    1
   172   139   138    1
   173   104   112   am
   174   140   141    2
   175    86    85   ar
   176    62    63    1
   177    87    85   ar
   178    85    84    1
   179   112   113    1
   180   115   114    2
   181    15    14    1
   182    15    18    1
   183    12    13    2
   184    12    11    1
   185   113   114    1
   186   113   116    1
   187    63    64   ar
   188    63    65   ar
   189    84    81    1
   190    83    82    2
   191    94    93    2
   192    18    19    1
   193    92    95    1
   194    92    91    1
   195    92    93    1
   196    11    10    1
   197    82    91   am
   198    82    81    1
   199    76    77    1
   200    77    78    1
   201   116   117    1
   202    95    96    1
   203    81    80    1
   204   117   118    1
   205    10     3   am
   206    19    20    1
   207    79    78    2
   208    96    97    1
   209    97    98    1
   210   118   119    1
   211     3     4    2
   212     3     2    1
   213    20    21    1
   214     1     2    1
   215   119   120    2
   216     2     5    1
   217    98    99    2
   218     5     6    1
   219    22    21    1
   220   120   121    1
   221   120   122    1
   222     9     7   ar
   223   100    99    1
   224    99   101    1
   225     6     7    1
   226     7     8   ar
