@<TRIPOS>MOLECULE
tmp/1ft5A03.pdb
 202 193 0 0 0
SMALL
GASTEIGER

@<TRIPOS>ATOM
      1  N        111.4550   62.7740   -6.4860 N.3    26  ALA26      -0.1231
      2  CA       111.2110   64.1210   -5.9060 C.3    26  ALA26       0.1694
      3  C        110.7370   63.9180   -4.4600 C.2    26  ALA26       0.2592
      4  O        111.1270   64.6620   -3.5600 O.2    26  ALA26      -0.2718
      5  CB       110.1280   64.8050   -6.6980 C.3    26  ALA26       0.0304
      6  N        109.9560   62.8740   -4.2410 N.am   27  HIS27      -0.1976
      7  CA       109.4670   62.6090   -2.8530 C.3    27  HIS27       0.1656
      8  C        110.6560   62.4820   -1.8880 C.2    27  HIS27       0.2291
      9  O        110.6710   63.0810   -0.7760 O.2    27  HIS27      -0.2864
     10  CB       108.6550   61.2900   -2.7740 C.3    27  HIS27       0.0771
     11  CG       107.2500   61.4110   -3.2970 C.ar   27  HIS27       0.0820
     12  ND1      106.6780   60.5080   -4.1880 N.ar   27  HIS27      -0.2267
     13  CD2      106.2990   62.3660   -3.0790 C.ar   27  HIS27       0.1154
     14  CE1      105.4600   60.9080   -4.4810 C.ar   27  HIS27       0.1986
     15  NE2      105.1540   62.0190   -3.8360 N.ar   27  HIS27      -0.2212
     16  N        113.4570   63.8220   -2.0350 N.3    29  LYS29      -0.1231
     17  CA       114.1640   65.1020   -1.9310 C.3    29  LYS29       0.1693
     18  C        113.2050   66.1870   -1.4450 C.2    29  LYS29       0.2591
     19  O        113.5520   67.3990   -1.4930 O.2    29  LYS29      -0.2718
     20  CB       114.7390   65.4910   -3.3290 C.3    29  LYS29       0.0285
     21  CG       115.6640   64.4010   -3.9050 C.3    29  LYS29       0.0035
     22  CD       115.9300   64.6070   -5.4010 C.3    29  LYS29       0.0206
     23  CE       116.7970   63.4390   -5.9150 C.3    29  LYS29       0.1093
     24  NZ       117.2870   63.6450   -7.3150 N.3    29  LYS29      -0.1314
     25  N        112.0320   65.8140   -0.9310 N.am   30  ALA30      -0.1980
     26  CA       111.0610   66.8630   -0.5660 C.3    30  ALA30       0.1597
     27  C        111.5070   67.8820    0.4190 C.2    30  ALA30       0.2287
     28  O        111.0540   69.0600    0.3290 O.2    30  ALA30      -0.2864
     29  CB       109.7740   66.2420   -0.0780 C.3    30  ALA30       0.0319
     30  N        113.4830   70.9740   -1.0100 N.3    33  SER33      -0.1217
     31  CA       112.6800   72.0320   -1.6000 C.3    33  SER33       0.1889
     32  C        112.3530   73.1130   -0.6020 C.2    33  SER33       0.2288
     33  O        112.0560   74.2250   -1.0160 O.2    33  SER33      -0.2866
     34  CB       111.3910   71.4930   -2.1700 C.3    33  SER33       0.2089
     35  OG       111.6750   70.6670   -3.2990 O.3    33  SER33      -0.2183
     36  N        114.7860   75.7050   -5.7910 N.3    39  LYS39      -0.1245
     37  CA       113.5540   75.8530   -6.5550 C.3    39  LYS39       0.1561
     38  C        113.0720   77.2840   -6.4550 C.2    39  LYS39       0.2260
     39  O        111.8820   77.5740   -6.2290 O.2    39  LYS39      -0.2867
     40  CB       112.4890   74.8530   -6.0890 C.3    39  LYS39       0.0271
     41  CG       112.9280   73.3950   -6.4900 C.3    39  LYS39       0.0035
     42  CD       111.7780   72.4250   -6.4740 C.3    39  LYS39       0.0206
     43  CE       112.1710   71.0500   -6.9900 C.3    39  LYS39       0.1093
     44  NZ       110.9610   70.1630   -7.0650 N.3    39  LYS39      -0.1314
     45  N        104.6000   69.4380    6.7680 N.3    62  GLY62      -0.1210
     46  CA       103.7210   68.2970    6.8670 C.3    62  GLY62       0.1956
     47  C        103.5520   67.5130    5.5890 C.2    62  GLY62       0.2612
     48  O        103.1610   66.3410    5.6390 O.2    62  GLY62      -0.2717
     49  N        103.7850   68.1710    4.4560 N.am   63  CYS63      -0.1956
     50  CA       103.6320   67.4100    3.2160 C.3    63  CYS63       0.1843
     51  C        104.9750   67.0370    2.6120 C.2    63  CYS63       0.2625
     52  O        105.0360   66.5110    1.5000 O.2    63  CYS63      -0.2714
     53  CB       102.8370   68.2420    2.1970 C.3    63  CYS63       0.0997
     54  SG       101.1570   68.5170    2.7910 S.3    63  CYS63      -0.0797
     55  N        106.0500   67.3050    3.3290 N.am   64  HIS64      -0.1959
     56  CA       107.4000   67.0470    2.8550 C.3    64  HIS64       0.1787
     57  C        108.1910   66.0530    3.7310 C.2    64  HIS64       0.2620
     58  O        109.4020   65.9350    3.5820 O.2    64  HIS64      -0.2715
     59  CB       108.1630   68.3710    2.7680 C.3    64  HIS64       0.0785
     60  CG       107.6720   69.2640    1.6400 C.ar   64  HIS64       0.0821
     61  ND1      108.3900   69.5060    0.4890 N.ar   64  HIS64      -0.2267
     62  CD2      106.4950   69.9470    1.4820 C.ar   64  HIS64       0.1154
     63  CE1      107.6620   70.3120   -0.3230 C.ar   64  HIS64       0.1986
     64  NE2      106.5040   70.5790    0.2330 N.ar   64  HIS64      -0.2212
     65  N        107.4530   65.4220    4.6400 N.am   65  VAL65      -0.1977
     66  CA       108.0140   64.4230    5.6100 C.3    65  VAL65       0.1596
     67  C        106.9890   63.3240    5.8420 C.2    65  VAL65       0.2287
     68  O        105.8260   63.4100    5.4520 O.2    65  VAL65      -0.2864
     69  CB       108.2840   65.1110    6.9900 C.3    65  VAL65       0.0276
     70  CG1      109.2530   66.2860    6.8250 C.3    65  VAL65       0.0022
     71  CG2      106.9390   65.5520    7.6700 C.3    65  VAL65       0.0022
     72  N        109.2950   62.4440    1.7010 N.3    86  VAL86      -0.1245
     73  CA       108.0570   61.6700    1.6610 C.3    86  VAL86       0.1561
     74  C        108.5450   60.2710    1.3600 C.2    86  VAL86       0.2260
     75  O        108.9100   59.9540    0.2420 O.2    86  VAL86      -0.2867
     76  CB       107.1580   62.1870    0.5360 C.3    86  VAL86       0.0252
     77  CG1      105.9270   61.3700    0.4500 C.3    86  VAL86       0.0019
     78  CG2      106.7120   63.6420    0.8840 C.3    86  VAL86       0.0019
     79  N        104.6270   57.1080    4.0940 N.3    90  SER90      -0.1202
     80  CA       103.6680   58.1170    3.6080 C.3    90  SER90       0.2020
     81  C        102.7270   57.5390    2.5730 C.2    90  SER90       0.2619
     82  O        101.6010   58.0300    2.4350 O.2    90  SER90      -0.2717
     83  CB       104.3740   59.3630    3.0270 C.3    90  SER90       0.2103
     84  OG       104.8770   60.1670    4.0760 O.3    90  SER90      -0.2182
     85  N        103.1470   56.4930    1.8410 N.am   91  CYS91      -0.1969
     86  CA       102.2300   55.8450    0.8940 C.3    91  CYS91       0.1712
     87  C        101.6900   54.5070    1.4020 C.2    91  CYS91       0.2296
     88  O        100.5030   54.2050    1.2960 O.2    91  CYS91      -0.2864
     89  CB       102.9210   55.6220   -0.4710 C.3    91  CYS91       0.0983
     90  SG       103.2780   57.2310   -1.2500 S.3    91  CYS91      -0.0798
     91  N         95.9020   53.6660   -1.2640 N.3   130  PHE130     -0.1241
     92  CA        96.7080   54.8770   -1.4750 C.3   130  PHE130      0.1605
     93  C         96.0730   56.2480   -1.8010 C.2   130  PHE130      0.2264
     94  O         96.6470   57.2680   -1.4170 O.2   130  PHE130     -0.2867
     95  CB        97.7410   54.6570   -2.6340 C.3   130  PHE130      0.0534
     96  CG        98.5790   53.3970   -2.4900 C.ar  130  PHE130     -0.0203
     97  CD1       98.2620   52.2210   -3.2280 C.ar  130  PHE130     -0.0042
     98  CD2       99.6140   53.3510   -1.5930 C.ar  130  PHE130     -0.0042
     99  CE1       98.9980   51.0240   -3.0360 C.ar  130  PHE130     -0.0003
    100  CE2      100.3620   52.1440   -1.3930 C.ar  130  PHE130     -0.0003
    101  CZ       100.0620   51.0130   -2.0950 C.ar  130  PHE130     -0.0000
    102  N         95.7370   58.9290    0.9300 N.3   133  ARG133     -0.1231
    103  CA        97.0290   59.4530    1.3310 C.3   133  ARG133      0.1694
    104  C         97.6440   60.4050    0.3160 C.2   133  ARG133      0.2592
    105  O         98.1610   61.4690    0.6910 O.2   133  ARG133     -0.2718
    106  CB        98.0530   58.3190    1.6640 C.3   133  ARG133      0.0321
    107  CG        97.7490   57.6900    3.0000 C.3   133  ARG133      0.0489
    108  CD        98.7880   56.5500    3.3530 C.3   133  ARG133      0.2205
    109  NE        98.2040   55.7720    4.4190 N.pl3 133  ARG133     -0.0865
    110  CZ        98.2650   56.1490    5.6830 C.cat 133  ARG133      0.5346
    111  NH1       98.9140   57.2930    5.9440 N.pl3 133  ARG133      0.1354
    112  NH2       97.6260   55.4510    6.6320 N.pl3 133  ARG133      0.1354
    113  N         97.5890   60.0610   -0.9720 N.am  134  CYS134     -0.1970
    114  CA        98.1940   60.9500   -1.9520 C.3   134  CYS134      0.1712
    115  C         97.4430   62.2750   -1.9650 C.2   134  CYS134      0.2296
    116  O         98.0660   63.3420   -2.0400 O.2   134  CYS134     -0.2864
    117  CB        98.1400   60.4770   -3.4070 C.3   134  CYS134      0.0983
    118  SG        98.5280   58.7070   -3.7480 S.3   134  CYS134     -0.0798
    119  N         98.0540   65.2570    0.5290 N.3   137  CYS137     -0.1221
    120  CA        99.1460   66.1680    0.2350 C.3   137  CYS137      0.1808
    121  C         98.8550   66.9120   -1.1110 C.2   137  CYS137      0.2601
    122  O         98.9620   68.1440   -1.1820 O.2   137  CYS137     -0.2717
    123  CB       100.4570   65.4610    0.0750 C.3   137  CYS137      0.0970
    124  SG       100.9140   64.6920    1.6490 S.3   137  CYS137     -0.0800
    125  N         98.4640   66.1660   -2.1420 N.am  138  HIS138     -0.1975
    126  CA        98.3490   66.7440   -3.4700 C.3   138  HIS138      0.1656
    127  C         97.0710   67.5120   -3.7780 C.2   138  HIS138      0.2291
    128  O         97.0890   68.3650   -4.6670 O.2   138  HIS138     -0.2864
    129  CB        98.5070   65.6170   -4.4970 C.3   138  HIS138      0.0771
    130  CG        99.9100   65.1780   -4.6830 C.ar  138  HIS138      0.0820
    131  ND1      100.7100   65.7290   -5.6530 N.ar  138  HIS138     -0.2267
    132  CD2      100.6890   64.2840   -3.9920 C.ar  138  HIS138      0.1154
    133  CE1      101.9330   65.1920   -5.5370 C.ar  138  HIS138      0.1986
    134  NE2      101.9610   64.3130   -4.5540 N.ar  138  HIS138     -0.2212
    135  N         96.3280   67.1500  -10.2810 N.3   166  PHE166     -0.1241
    136  CA        96.6050   65.8140   -9.7920 C.3   166  PHE166      0.1605
    137  C         95.4970   64.8590  -10.0620 C.2   166  PHE166      0.2264
    138  O         94.3790   65.0620   -9.6030 O.2   166  PHE166     -0.2867
    139  CB        96.8590   65.8390   -8.2720 C.3   166  PHE166      0.0534
    140  CG        97.2050   64.4690   -7.7000 C.ar  166  PHE166     -0.0203
    141  CD1       98.5190   64.0100   -7.7760 C.ar  166  PHE166     -0.0042
    142  CD2       96.2260   63.6900   -7.0980 C.ar  166  PHE166     -0.0042
    143  CE1       98.8670   62.7610   -7.2360 C.ar  166  PHE166     -0.0003
    144  CE2       96.5860   62.4080   -6.5470 C.ar  166  PHE166     -0.0003
    145  CZ        97.9150   61.9890   -6.6320 C.ar  166  PHE166     -0.0000
    146  N         94.8550   60.9280   -9.5240 N.3   168  PHE168     -0.1241
    147  CA        95.4340   59.7220   -8.9580 C.3   168  PHE168      0.1605
    148  C         95.6630   58.5870   -9.9440 C.2   168  PHE168      0.2264
    149  O         96.7570   58.0150   -9.9800 O.2   168  PHE168     -0.2867
    150  CB        94.5570   59.2100   -7.8270 C.3   168  PHE168      0.0534
    151  CG        95.0470   57.9040   -7.2650 C.ar  168  PHE168     -0.0203
    152  CD1       96.1450   57.8490   -6.4300 C.ar  168  PHE168     -0.0042
    153  CD2       94.3590   56.7130   -7.5640 C.ar  168  PHE168     -0.0042
    154  CE1       96.5730   56.6320   -5.8840 C.ar  168  PHE168     -0.0003
    155  CE2       94.7720   55.5240   -7.0180 C.ar  168  PHE168     -0.0003
    156  CZ        95.8860   55.4670   -6.1720 C.ar  168  PHE168     -0.0000
    157  N         98.7580   59.5590  -12.0580 N.3   171  MET171     -0.1230
    158  CA       100.0120   59.7390  -11.4180 C.3   171  MET171      0.1702
    159  C        100.5320   58.5680  -10.6120 C.2   171  MET171      0.2592
    160  O        101.7220   58.4900  -10.4290 O.2   171  MET171     -0.2718
    161  CB        99.9650   61.0330  -10.6210 C.3   171  MET171      0.0401
    162  CG       100.7360   62.0840  -11.4600 C.3   171  MET171      0.0596
    163  SD       100.0880   63.6770  -11.3030 S.3   171  MET171     -0.1393
    164  CE       100.4630   64.4300  -12.9720 C.3   171  MET171      0.0692
    165  N         99.6370   57.6890  -10.1820 N.am  172  VAL172     -0.1980
    166  CA       100.1430   56.4960   -9.4470 C.3   172  VAL172      0.1595
    167  C        100.8400   55.5510  -10.4000 C.2   172  VAL172      0.2287
    168  O        101.5520   54.6440   -9.9460 O.2   172  VAL172     -0.2864
    169  CB        98.9940   55.8100   -8.6880 C.3   172  VAL172      0.0276
    170  CG1       98.0510   54.9710   -9.6480 C.3   172  VAL172      0.0022
    171  CG2       99.5880   54.8500   -7.5920 C.3   172  VAL172      0.0022
    172  N        103.1170   56.6690  -12.5430 N.3   174  GLU174     -0.1245
    173  CA       104.3700   57.3160  -12.9190 C.3   174  GLU174      0.1567
    174  C        105.4500   56.7080  -12.0480 C.2   174  GLU174      0.2260
    175  O        105.5870   57.0910  -10.8660 O.2   174  GLU174     -0.2867
    176  CB       104.2310   58.8240  -12.6260 C.3   174  GLU174      0.0388
    177  CG       105.3280   59.6950  -13.1950 C.3   174  GLU174      0.1160
    178  CD       105.1370   59.9690  -14.7170 C.2   174  GLU174      0.3649
    179  OE1      103.9990   60.2790  -15.2200 O.co2 174  GLU174     -0.2457
    180  OE2      106.1600   59.8820  -15.3330 O.co2 174  GLU174     -0.2457
    181  N        108.6070   57.0650  -12.1050 N.3   176  LYS176     -0.1231
    182  CA       109.6450   57.9980  -11.6660 C.3   176  LYS176      0.1693
    183  C        109.1790   58.8450  -10.5210 C.2   176  LYS176      0.2592
    184  O        109.9860   59.5980   -9.9760 O.2   176  LYS176     -0.2718
    185  CB       110.1340   58.9300  -12.7880 C.3   176  LYS176      0.0285
    186  CG       110.7840   58.1310  -13.8990 C.3   176  LYS176      0.0035
    187  CD       109.7090   57.4090  -14.6730 C.3   176  LYS176      0.0206
    188  CE       108.5060   58.3150  -14.7760 C.3   176  LYS176      0.1093
    189  NZ       107.2710   57.5990  -14.7570 N.3   176  LYS176     -0.1314
    190  N        107.9020   58.7850  -10.1790 N.am  177  ALA177     -0.1966
    191  CA       107.4240   59.5370   -9.0460 C.3   177  ALA177      0.1728
    192  C        107.1110   58.6360   -7.8260 C.2   177  ALA177      0.2616
    193  O        107.0020   59.1610   -6.7230 O.2   177  ALA177     -0.2715
    194  CB       106.1910   60.3070   -9.4030 C.3   177  ALA177      0.0334
    195  N        106.9990   57.3190   -8.0490 N.am  178  MET178     -0.1977
    196  CA       106.7450   56.3570   -6.9670 C.3   178  MET178      0.1605
    197  C        108.1530   55.7390   -6.6610 C.2   178  MET178      0.2287
    198  O        108.8810   56.1330   -5.7650 O.2   178  MET178     -0.2864
    199  CB       105.7300   55.2400   -7.4590 C.3   178  MET178      0.0413
    200  CG       104.3720   55.7340   -8.0130 C.3   178  MET178      0.0598
    201  SD       103.3350   56.4870   -6.6930 S.3   178  MET178     -0.1393
    202  CE       103.9480   58.2390   -6.9100 C.3   178  MET178      0.0692
@<TRIPOS>BOND
     1   180   178   ar
     2   179   178   ar
     3   188   189    1
     4   188   187    1
     5   178   177    1
     6   187   186    1
     7   186   185    1
     8   177   176    1
     9   164   163    1
    10   173   176    1
    11   173   172    1
    12   173   174    1
    13   185   182    1
    14   181   182    1
    15   157   158    1
    16   174   175    2
    17   182   183    1
    18   162   163    1
    19   162   161    1
    20   158   161    1
    21   158   159    1
    22   159   160    2
    23   159   165   am
    24   183   190   am
    25   183   184    2
    26   167   168    2
    27   167   166    1
    28   135   136    1
    29   165   166    1
    30   190   191    1
    31   137   136    1
    32   137   138    2
    33   149   148    2
    34   148   147    1
    35   136   139    1
    36   170   169    1
    37   146   147    1
    38   166   169    1
    39   194   191    1
    40   191   192    1
    41   147   150    1
    42   169   171    1
    43   139   140    1
    44   195   192   am
    45   195   196    1
    46   200   199    1
    47   200   201    1
    48   150   151    1
    49   192   193    2
    50   141   140   ar
    51   141   143   ar
    52   140   142   ar
    53   153   151   ar
    54   153   155   ar
    55   199   196    1
    56    24    23    1
    57   151   152   ar
    58   143   145   ar
    59   142   144   ar
    60    44    43    1
    61   155   156   ar
    62    43    42    1
    63   196   197    1
    64   202   201    1
    65     5     2    1
    66   197   198    2
    67   145   144   ar
    68    37    38    1
    69    37    40    1
    70    37    36    1
    71    41    42    1
    72    41    40    1
    73     1     2    1
    74    38    39    2
    75   152   154   ar
    76   156   154   ar
    77    23    22    1
    78     2     3    1
    79   131   133   ar
    80   131   130   ar
    81   133   134   ar
    82    22    21    1
    83   130   129    1
    84   130   132   ar
    85   128   127    2
    86   134   132   ar
    87   129   126    1
    88    14    12   ar
    89    14    15   ar
    90     3     6   am
    91     3     4    2
    92     6     7    1
    93    12    11   ar
    94    21    20    1
    95    15    13   ar
    96   127   126    1
    97   118   117    1
    98   126   125    1
    99   117   114    1
   100    20    17    1
   101    35    34    1
   102    11    13   ar
   103    11    10    1
   104    97    99   ar
   105    97    96   ar
   106    99   101   ar
   107     7    10    1
   108     7     8    1
   109    95    96    1
   110    95    92    1
   111    96    98   ar
   112    34    31    1
   113   125   121   am
   114   101   100   ar
   115   116   115    2
   116    16    17    1
   117   115   114    1
   118   114   113    1
   119    17    18    1
   120     8     9    2
   121    93    92    1
   122    93    94    2
   123    31    30    1
   124    31    32    1
   125    98   100   ar
   126    19    18    2
   127    92    91    1
   128    18    25   am
   129    90    89    1
   130   122   121    2
   131   121   120    1
   132    33    32    2
   133   113   104   am
   134    25    26    1
   135    26    29    1
   136    26    27    1
   137    89    86    1
   138    63    64   ar
   139    63    61   ar
   140   123   120    1
   141   123   124    1
   142    64    62   ar
   143   120   119    1
   144    75    74    2
   145   104   105    2
   146   104   103    1
   147    28    27    2
   148    77    76    1
   149    61    60   ar
   150    76    78    1
   151    76    73    1
   152    86    87    1
   153    86    85    1
   154   102   103    1
   155    88    87    2
   156   103   106    1
   157    74    73    1
   158    62    60   ar
   159    52    51    2
   160    60    59    1
   161    73    72    1
   162   106   107    1
   163    85    81   am
   164    53    54    1
   165    53    50    1
   166    82    81    2
   167    81    80    1
   168    51    50    1
   169    51    55   am
   170    59    56    1
   171    56    55    1
   172    56    57    1
   173   107   108    1
   174    83    80    1
   175    83    84    1
   176    50    49    1
   177   108   109    1
   178    58    57    2
   179    80    79    1
   180    57    65   am
   181   109   110    2
   182    49    47   am
   183    65    66    1
   184    68    67    2
   185    47    48    2
   186    47    46    1
   187    66    67    1
   188    66    69    1
   189   110   111    1
   190   110   112    1
   191    45    46    1
   192    70    69    1
   193    69    71    1
