@<TRIPOS>MOLECULE
tmp/1ft5A02.pdb
 253 248 0 0 0
SMALL
GASTEIGER

@<TRIPOS>ATOM
      1  N        111.8280   55.0620    7.6110 N.3     8  ARG8       -0.1245
      2  CA       112.0860   54.2030    6.4420 C.3     8  ARG8        0.1563
      3  C        113.0930   53.1060    6.6180 C.2     8  ARG8        0.2260
      4  O        113.1250   52.1840    5.8080 O.2     8  ARG8       -0.2867
      5  CB       112.6530   55.0260    5.2670 C.3     8  ARG8        0.0307
      6  CG       111.9420   56.2830    4.9000 C.3     8  ARG8        0.0489
      7  CD       112.6450   56.8830    3.6700 C.3     8  ARG8        0.2205
      8  NE       114.0700   57.1680    3.8170 N.pl3   8  ARG8       -0.0865
      9  CZ       114.5440   58.2980    4.3760 C.cat   8  ARG8        0.5346
     10  NH1      113.6920   59.2520    4.8580 N.pl3   8  ARG8        0.1354
     11  NH2      115.8360   58.5440    4.3860 N.pl3   8  ARG8        0.1354
     12  N        112.0720   49.3730    6.4420 N.3    11  CYS11      -0.1221
     13  CA       111.5470   49.0430    5.1340 C.3    11  CYS11       0.1808
     14  C        112.6590   48.9740    4.0990 C.2    11  CYS11       0.2601
     15  O        112.6480   48.0900    3.2290 O.2    11  CYS11      -0.2717
     16  CB       110.5550   50.1340    4.6270 C.3    11  CYS11       0.0970
     17  SG       109.3790   50.7990    5.8370 S.3    11  CYS11      -0.0800
     18  N        113.5880   49.9280    4.1280 N.am   12  SER12      -0.1952
     19  CA       114.6090   50.0040    3.1140 C.3    12  SER12       0.1924
     20  C        115.6050   48.8630    3.2120 C.2    12  SER12       0.2314
     21  O        116.1780   48.4780    2.2010 O.2    12  SER12      -0.2863
     22  CB       115.3290   51.3390    3.2120 C.3    12  SER12       0.2116
     23  OG       114.3690   52.4170    2.9430 O.3    12  SER12      -0.2180
     24  N        113.8580   45.9960    1.5320 N.3    15  HIS15      -0.1241
     25  CA       113.4140   46.2840    0.1870 C.3    15  HIS15       0.1621
     26  C        114.3850   47.2070   -0.4540 C.2    15  HIS15       0.2264
     27  O        114.0520   48.3710   -0.8000 O.2    15  HIS15      -0.2867
     28  CB       112.0210   46.9150    0.2770 C.3    15  HIS15       0.0745
     29  CG       110.9870   45.9820    0.8200 C.ar   15  HIS15       0.0817
     30  ND1      110.6090   44.8240    0.1740 N.ar   15  HIS15      -0.2268
     31  CD2      110.1810   46.0670    1.9200 C.ar   15  HIS15       0.1154
     32  CE1      109.5900   44.2910    0.8610 C.ar   15  HIS15       0.1986
     33  NE2      109.2620   44.9830    1.9690 N.ar   15  HIS15      -0.2212
     34  N        113.5830   48.7840   -4.1420 N.3    18  GLN18      -0.1231
     35  CA       112.6010   49.8990   -4.1360 C.3    18  GLN18       0.1698
     36  C        113.2410   51.0870   -3.4500 C.2    18  GLN18       0.2592
     37  O        113.0400   52.2220   -3.8870 O.2    18  GLN18      -0.2718
     38  CB       111.3110   49.5210   -3.3610 C.3    18  GLN18       0.0381
     39  CG       110.4270   48.5130   -4.1100 C.3    18  GLN18       0.0905
     40  CD       110.8730   47.0460   -3.9490 C.2    18  GLN18       0.2608
     41  OE1      111.8600   46.7550   -3.2590 O.2    18  GLN18      -0.2717
     42  NE2      110.1620   46.1520   -4.6340 N.am   18  GLN18      -0.0878
     43  N        113.9990   50.8630   -2.3700 N.am   19  ALA19      -0.1980
     44  CA       114.6290   52.0130   -1.6850 C.3    19  ALA19       0.1597
     45  C        115.6400   52.7660   -2.5600 C.2    19  ALA19       0.2287
     46  O        115.7470   54.0190   -2.5530 O.2    19  ALA19      -0.2864
     47  CB       115.3260   51.5330   -0.3880 C.3    19  ALA19       0.0319
     48  N        113.5580   54.7180   -5.0100 N.3    22  TRP22      -0.1241
     49  CA       112.8290   55.8050   -4.3300 C.3    22  TRP22       0.1605
     50  C        113.7880   56.9900   -4.0190 C.2    22  TRP22       0.2264
     51  O        113.3930   58.1710   -4.0630 O.2    22  TRP22      -0.2867
     52  CB       112.2300   55.2190   -3.0170 C.3    22  TRP22       0.0550
     53  CG       111.7530   56.2950   -2.0570 C.ar   22  TRP22       0.0003
     54  CD1      110.5170   56.9090   -2.0590 C.ar   22  TRP22       0.0946
     55  CD2      112.5390   56.9440   -1.0500 C.ar   22  TRP22       0.0152
     56  NE1      110.5020   57.9280   -1.0920 N.ar   22  TRP22      -0.2442
     57  CE2      111.7260   57.9740   -0.4750 C.ar   22  TRP22       0.0810
     58  CE3      113.8520   56.7860   -0.5770 C.ar   22  TRP22       0.0012
     59  CZ2      112.1990   58.8280    0.5640 C.ar   22  TRP22       0.0191
     60  CZ3      114.3260   57.6290    0.4400 C.ar   22  TRP22       0.0001
     61  CH2      113.4850   58.6440    1.0000 C.ar   22  TRP22       0.0015
     62  N        109.9560   62.8740   -4.2410 N.3    27  HIS27      -0.1241
     63  CA       109.4670   62.6090   -2.8530 C.3    27  HIS27       0.1621
     64  C        110.6560   62.4820   -1.8880 C.2    27  HIS27       0.2264
     65  O        110.6710   63.0810   -0.7760 O.2    27  HIS27      -0.2867
     66  CB       108.6550   61.2900   -2.7740 C.3    27  HIS27       0.0745
     67  CG       107.2500   61.4110   -3.2970 C.ar   27  HIS27       0.0817
     68  ND1      106.6780   60.5080   -4.1880 N.ar   27  HIS27      -0.2268
     69  CD2      106.2990   62.3660   -3.0790 C.ar   27  HIS27       0.1154
     70  CE1      105.4600   60.9080   -4.4810 C.ar   27  HIS27       0.1986
     71  NE2      105.1540   62.0190   -3.8360 N.ar   27  HIS27      -0.2212
     72  N        109.2950   62.4440    1.7010 N.3    86  VAL86      -0.1231
     73  CA       108.0570   61.6700    1.6610 C.3    86  VAL86       0.1692
     74  C        108.5450   60.2710    1.3600 C.2    86  VAL86       0.2593
     75  O        108.9100   59.9540    0.2420 O.2    86  VAL86      -0.2718
     76  CB       107.1580   62.1870    0.5360 C.3    86  VAL86       0.0266
     77  CG1      105.9270   61.3700    0.4500 C.3    86  VAL86       0.0020
     78  CG2      106.7120   63.6420    0.8840 C.3    86  VAL86       0.0020
     79  N        108.5090   59.4770    2.4140 N.am   87  GLY87      -0.1942
     80  CA       109.0450   58.1160    2.3860 C.3    87  GLY87       0.2014
     81  C        108.0420   57.0110    2.3350 C.2    87  GLY87       0.2639
     82  O        106.8490   57.1700    2.0820 O.2    87  GLY87      -0.2714
     83  N        108.5650   55.8080    2.6790 N.am   88  CYS88      -0.1967
     84  CA       107.7480   54.6130    2.4660 C.3    88  CYS88       0.1712
     85  C        106.3900   54.6060    3.1100 C.2    88  CYS88       0.2296
     86  O        105.4010   54.2090    2.5650 O.2    88  CYS88      -0.2864
     87  CB       108.5730   53.3870    2.9910 C.3    88  CYS88       0.0983
     88  SG       110.3000   53.3750    2.5830 S.3    88  CYS88      -0.0798
     89  N        103.1470   56.4930    1.8410 N.3    91  CYS91      -0.1221
     90  CA       102.2300   55.8450    0.8940 C.3    91  CYS91       0.1808
     91  C        101.6900   54.5070    1.4020 C.2    91  CYS91       0.2601
     92  O        100.5030   54.2050    1.2960 O.2    91  CYS91      -0.2717
     93  CB       102.9210   55.6220   -0.4710 C.3    91  CYS91       0.0970
     94  SG       103.2780   57.2310   -1.2500 S.3    91  CYS91      -0.0800
     95  N        102.5830   53.7100    1.9680 N.am   92  HIS92      -0.1975
     96  CA       102.1750   52.3880    2.3950 C.3    92  HIS92       0.1656
     97  C        101.5630   52.3010    3.7770 C.2    92  HIS92       0.2291
     98  O        101.1140   51.2330    4.1730 O.2    92  HIS92      -0.2864
     99  CB       103.4190   51.4720    2.3380 C.3    92  HIS92       0.0771
    100  CG       103.8920   51.2690    0.9410 C.ar   92  HIS92       0.0820
    101  ND1      103.2070   50.4800    0.0450 N.ar   92  HIS92      -0.2267
    102  CD2      104.9620   51.7700    0.2780 C.ar   92  HIS92       0.1154
    103  CE1      103.8720   50.5380   -1.1150 C.ar   92  HIS92       0.1986
    104  NE2      104.9430   51.2950   -1.0450 N.ar   92  HIS92      -0.2212
    105  N         96.5550   39.4830    2.7880 N.3   118  ARG118     -0.1245
    106  CA        96.8080   40.9340    2.9000 C.3   118  ARG118      0.1563
    107  C         95.8600   41.5140    3.9630 C.2   118  ARG118      0.2260
    108  O         96.1740   42.5420    4.5640 O.2   118  ARG118     -0.2867
    109  CB        96.5220   41.6290    1.5630 C.3   118  ARG118      0.0307
    110  CG        97.6430   41.4830    0.5500 C.3   118  ARG118      0.0489
    111  CD        97.3500   42.3700   -0.6750 C.3   118  ARG118      0.2205
    112  NE        98.4710   42.1810   -1.5360 N.pl3 118  ARG118     -0.0865
    113  CZ        98.4880   41.2530   -2.4800 C.cat 118  ARG118      0.5346
    114  NH1       97.4270   40.4780   -2.6680 N.pl3 118  ARG118      0.1354
    115  NH2       99.6030   41.0000   -3.1200 N.pl3 118  ARG118      0.1354
    116  N         96.6310   49.5620    0.9930 N.3   128  PHE128     -0.1241
    117  CA        96.6650   48.9560   -0.3300 C.3   128  PHE128      0.1605
    118  C         95.8250   49.7180   -1.3160 C.2   128  PHE128      0.2264
    119  O         95.5270   49.1870   -2.3810 O.2   128  PHE128     -0.2867
    120  CB        96.1480   47.5110   -0.2380 C.3   128  PHE128      0.0534
    121  CG        96.9960   46.6670    0.6600 C.ar  128  PHE128     -0.0203
    122  CD1       98.1430   46.0660    0.1570 C.ar  128  PHE128     -0.0042
    123  CD2       96.6700   46.4890    2.0180 C.ar  128  PHE128     -0.0042
    124  CE1       98.9740   45.2960    0.9670 C.ar  128  PHE128     -0.0003
    125  CE2       97.5050   45.7010    2.8610 C.ar  128  PHE128     -0.0003
    126  CZ        98.6660   45.1010    2.3360 C.ar  128  PHE128     -0.0000
    127  N         95.9020   53.6660   -1.2640 N.3   130  PHE130     -0.1241
    128  CA        96.7080   54.8770   -1.4750 C.3   130  PHE130      0.1605
    129  C         96.0730   56.2480   -1.8010 C.2   130  PHE130      0.2264
    130  O         96.6470   57.2680   -1.4170 O.2   130  PHE130     -0.2867
    131  CB        97.7410   54.6570   -2.6340 C.3   130  PHE130      0.0534
    132  CG        98.5790   53.3970   -2.4900 C.ar  130  PHE130     -0.0203
    133  CD1       98.2620   52.2210   -3.2280 C.ar  130  PHE130     -0.0042
    134  CD2       99.6140   53.3510   -1.5930 C.ar  130  PHE130     -0.0042
    135  CE1       98.9980   51.0240   -3.0360 C.ar  130  PHE130     -0.0003
    136  CE2      100.3620   52.1440   -1.3930 C.ar  130  PHE130     -0.0003
    137  CZ       100.0620   51.0130   -2.0950 C.ar  130  PHE130     -0.0000
    138  N         97.5890   60.0610   -0.9720 N.3   134  CYS134     -0.1235
    139  CA        98.1940   60.9500   -1.9520 C.3   134  CYS134      0.1677
    140  C         97.4430   62.2750   -1.9650 C.2   134  CYS134      0.2270
    141  O         98.0660   63.3420   -2.0400 O.2   134  CYS134     -0.2867
    142  CB        98.1400   60.4770   -3.4070 C.3   134  CYS134      0.0956
    143  SG        98.5280   58.7070   -3.7480 S.3   134  CYS134     -0.0801
    144  N         99.6370   57.6890  -10.1820 N.3   172  VAL172     -0.1245
    145  CA       100.1430   56.4960   -9.4470 C.3   172  VAL172      0.1561
    146  C        100.8400   55.5510  -10.4000 C.2   172  VAL172      0.2260
    147  O        101.5520   54.6440   -9.9460 O.2   172  VAL172     -0.2867
    148  CB        98.9940   55.8100   -8.6880 C.3   172  VAL172      0.0252
    149  CG1       98.0510   54.9710   -9.6480 C.3   172  VAL172      0.0019
    150  CG2       99.5880   54.8500   -7.5920 C.3   172  VAL172      0.0019
    151  N        107.9020   58.7850  -10.1790 N.3   177  ALA177     -0.1231
    152  CA       107.4240   59.5370   -9.0460 C.3   177  ALA177      0.1694
    153  C        107.1110   58.6360   -7.8260 C.2   177  ALA177      0.2592
    154  O        107.0020   59.1610   -6.7230 O.2   177  ALA177     -0.2718
    155  CB       106.1910   60.3070   -9.4030 C.3   177  ALA177      0.0304
    156  N        106.9990   57.3190   -8.0490 N.am  178  MET178     -0.1965
    157  CA       106.7450   56.3570   -6.9670 C.3   178  MET178      0.1736
    158  C        108.1530   55.7390   -6.6610 C.2   178  MET178      0.2616
    159  O        108.8810   56.1330   -5.7650 O.2   178  MET178     -0.2715
    160  CB       105.7300   55.2400   -7.4590 C.3   178  MET178      0.0427
    161  CG       104.3720   55.7340   -8.0130 C.3   178  MET178      0.0599
    162  SD       103.3350   56.4870   -6.6930 S.3   178  MET178     -0.1393
    163  CE       103.9480   58.2390   -6.9100 C.3   178  MET178      0.0692
    164  N        108.4520   54.6880   -7.4240 N.am  179  HIS179     -0.1959
    165  CA       109.7430   53.9980   -7.4460 C.3   179  HIS179      0.1787
    166  C        109.4650   52.8870   -8.4720 C.2   179  HIS179      0.2620
    167  O        108.3320   52.5630   -8.7690 O.2   179  HIS179     -0.2715
    168  CB       110.2080   53.3650   -6.0970 C.3   179  HIS179      0.0785
    169  CG       109.2020   52.5030   -5.4200 C.ar  179  HIS179      0.0821
    170  ND1      108.8080   51.2530   -5.8630 N.ar  179  HIS179     -0.2267
    171  CD2      108.4470   52.7450   -4.3230 C.ar  179  HIS179      0.1154
    172  CE1      107.8390   50.8310   -5.0250 C.ar  179  HIS179      0.1986
    173  NE2      107.5860   51.7250   -4.0630 N.ar  179  HIS179     -0.2212
    174  N        110.5160   52.3870   -9.0490 N.am  180  GLU180     -0.1963
    175  CA       110.3610   51.2830   -9.9780 C.3   180  GLU180      0.1733
    176  C        109.7050   50.1360   -9.2270 C.2   180  GLU180      0.2616
    177  O        109.9070   49.9850   -7.9900 O.2   180  GLU180     -0.2715
    178  CB       111.7360   50.8720  -10.4420 C.3   180  GLU180      0.0429
    179  CG       111.6990   49.7760  -11.4750 C.3   180  GLU180      0.1163
    180  CD       110.8460   50.1510  -12.6850 C.2   180  GLU180      0.3649
    181  OE1      111.3730   50.8770  -13.5480 O.co2 180  GLU180     -0.2457
    182  OE2      109.6730   49.7490  -12.7700 O.co2 180  GLU180     -0.2457
    183  N        109.0010   49.2870   -9.9890 N.am  181  HIS181     -0.1959
    184  CA       108.3000   48.1290   -9.4450 C.3   181  HIS181      0.1787
    185  C        109.1100   46.8830   -9.7580 C.2   181  HIS181      0.2620
    186  O        109.6220   46.7140  -10.8760 O.2   181  HIS181     -0.2715
    187  CB       106.8940   48.0540   -9.9880 C.3   181  HIS181      0.0785
    188  CG       106.0640   49.2350   -9.5760 C.ar  181  HIS181      0.0821
    189  ND1      105.7350   49.4690   -8.2550 N.ar  181  HIS181     -0.2267
    190  CD2      105.5690   50.2820  -10.2850 C.ar  181  HIS181      0.1154
    191  CE1      105.0770   50.6270   -8.1730 C.ar  181  HIS181      0.1986
    192  NE2      104.9630   51.1370   -9.3850 N.ar  181  HIS181     -0.2212
    193  N        109.3400   46.1120   -8.7170 N.am  182  TYR182     -0.1974
    194  CA       110.1120   44.8670   -8.8150 C.3   182  TYR182      0.1639
    195  C        109.2020   43.6870   -8.5140 C.2   182  TYR182      0.2290
    196  O        108.2040   43.7540   -7.7890 O.2   182  TYR182     -0.2864
    197  CB       111.3230   44.9210   -7.8590 C.3   182  TYR182      0.0560
    198  CG       112.2280   46.0460   -8.2190 C.ar  182  TYR182     -0.0198
    199  CD1      112.0730   47.2860   -7.6230 C.ar  182  TYR182     -0.0009
    200  CD2      113.2260   45.9010   -9.2190 C.ar  182  TYR182     -0.0009
    201  CE1      112.8600   48.3620   -7.9820 C.ar  182  TYR182      0.0417
    202  CE2      114.0190   46.9800   -9.5790 C.ar  182  TYR182      0.0417
    203  CZ       113.8330   48.2120   -8.9610 C.ar  182  TYR182      0.1957
    204  OH       114.5890   49.3110   -9.3180 O.3   182  TYR182     -0.2866
    205  N        107.4700   40.4150   -7.1550 N.3   184  LEU184     -0.1245
    206  CA       107.2220   39.8180   -5.8490 C.3   184  LEU184      0.1561
    207  C        107.0770   38.2960   -6.0310 C.2   184  LEU184      0.2260
    208  O        106.5700   37.8340   -7.0630 O.2   184  LEU184     -0.2867
    209  CB       105.9070   40.3110   -5.2750 C.3   184  LEU184      0.0270
    210  CG       105.9470   41.8300   -4.8770 C.3   184  LEU184      0.0019
    211  CD1      104.4930   42.3210   -4.6510 C.3   184  LEU184      0.0001
    212  CD2      106.7960   42.0320   -3.6130 C.3   184  LEU184      0.0001
    213  N         95.6900   46.2780   -4.1790 N.3   194  PHE194     -0.1241
    214  CA        95.7000   47.5100   -4.9900 C.3   194  PHE194      0.1605
    215  C         95.2110   47.1920   -6.3990 C.2   194  PHE194      0.2264
    216  O         95.6570   46.2030   -7.0070 O.2   194  PHE194     -0.2867
    217  CB        97.1250   48.0700   -5.0610 C.3   194  PHE194      0.0534
    218  CG        97.2270   49.3470   -5.8580 C.ar  194  PHE194     -0.0203
    219  CD1       98.3120   49.5300   -6.7400 C.ar  194  PHE194     -0.0042
    220  CD2       96.2680   50.3430   -5.7070 C.ar  194  PHE194     -0.0042
    221  CE1       98.4320   50.7670   -7.4960 C.ar  194  PHE194     -0.0003
    222  CE2       96.3860   51.5560   -6.4500 C.ar  194  PHE194     -0.0003
    223  CZ        97.4540   51.7390   -7.3170 C.ar  194  PHE194     -0.0000
    224  N         97.8310   46.4050   -8.8880 N.3   197  HIS197     -0.1241
    225  CA        98.9030   45.4840   -8.4900 C.3   197  HIS197      0.1621
    226  C         99.3000   44.4290   -9.5810 C.2   197  HIS197      0.2264
    227  O        100.4710   44.2600   -9.8760 O.2   197  HIS197     -0.2867
    228  CB        98.4290   44.7080   -7.2240 C.3   197  HIS197      0.0745
    229  CG        99.4420   43.7180   -6.7200 C.ar  197  HIS197      0.0817
    230  ND1      100.4290   44.0440   -5.8210 N.ar  197  HIS197     -0.2268
    231  CD2       99.6180   42.3980   -7.0080 C.ar  197  HIS197      0.1154
    232  CE1      101.1750   42.9760   -5.5720 C.ar  197  HIS197      0.1986
    233  NE2      100.7020   41.9620   -6.2850 N.ar  197  HIS197     -0.2212
    234  N        101.0560   46.1730  -12.3720 N.3   200  PHE200     -0.1227
    235  CA       102.4050   46.5720  -12.0250 C.3   200  PHE200      0.1736
    236  C        103.3690   45.3640  -11.9140 C.2   200  PHE200      0.2595
    237  O        104.5480   45.4440  -12.2790 O.2   200  PHE200     -0.2718
    238  CB       102.3650   47.3000  -10.6520 C.3   200  PHE200      0.0547
    239  CG       101.9000   48.7210  -10.7090 C.ar  200  PHE200     -0.0202
    240  CD1      102.0190   49.4870   -9.5870 C.ar  200  PHE200     -0.0042
    241  CD2      101.3540   49.2790  -11.8620 C.ar  200  PHE200     -0.0042
    242  CE1      101.5980   50.8270   -9.5760 C.ar  200  PHE200     -0.0003
    243  CE2      100.9270   50.5770  -11.8740 C.ar  200  PHE200     -0.0003
    244  CZ       101.0400   51.3820  -10.7310 C.ar  200  PHE200     -0.0000
    245  N        102.8070   44.2340  -11.4490 N.am  201  GLN201     -0.1979
    246  CA       103.6570   43.0860  -11.2980 C.3   201  GLN201      0.1601
    247  C        103.9440   42.4430  -12.6530 C.2   201  GLN201      0.2287
    248  O        105.0480   41.9440  -12.8470 O.2   201  GLN201     -0.2864
    249  CB       102.9980   42.0790  -10.3560 C.3   201  GLN201      0.0394
    250  CG       103.1890   42.4820   -8.8970 C.3   201  GLN201      0.0908
    251  CD       104.6550   42.3980   -8.5060 C.2   201  GLN201      0.2608
    252  OE1      105.2910   41.3150   -8.5690 O.2   201  GLN201     -0.2717
    253  NE2      105.2400   43.5320   -8.1300 N.am  201  GLN201     -0.0878
@<TRIPOS>BOND
     1   181   180   ar
     2   248   247    2
     3   182   180   ar
     4   180   179    1
     5   247   246    1
     6   234   235    1
     7   237   236    2
     8   235   236    1
     9   235   238    1
    10   236   245   am
    11   243   241   ar
    12   243   244   ar
    13   241   239   ar
    14   179   178    1
    15   245   246    1
    16   246   249    1
    17   186   185    2
    18   244   242   ar
    19   239   238    1
    20   239   240   ar
    21   178   175    1
    22   146   147    2
    23   146   145    1
    24   249   250    1
    25   190   188   ar
    26   190   192   ar
    27   144   145    1
    28   151   152    1
    29   183   184    1
    30   183   176   am
    31   187   188    1
    32   187   184    1
    33   175   176    1
    34   175   174    1
    35   227   226    2
    36   185   184    1
    37   185   193   am
    38   149   148    1
    39   240   242   ar
    40   226   225    1
    41   202   200   ar
    42   202   203   ar
    43   188   189   ar
    44   145   148    1
    45   155   152    1
    46   192   191   ar
    47   204   203    1
    48   176   177    2
    49   200   198   ar
    50   174   166   am
    51   152   153    1
    52   203   201   ar
    53   250   251    1
    54   224   225    1
    55   194   193    1
    56   194   195    1
    57   194   197    1
    58   167   166    2
    59   148   150    1
    60   252   251    2
    61   195   196    2
    62   251   253   am
    63   225   228    1
    64   166   165    1
    65   189   191   ar
    66   198   197    1
    67   198   199   ar
    68   156   153   am
    69   156   157    1
    70   161   160    1
    71   161   162    1
    72   201   199   ar
    73   153   154    2
    74   221   223   ar
    75   221   219   ar
    76   160   157    1
    77   165   164    1
    78   165   168    1
    79   164   158   am
    80   223   222   ar
    81   228   229    1
    82   205   206    1
    83   208   207    2
    84   231   229   ar
    85   231   233   ar
    86   216   215    2
    87   157   158    1
    88   163   162    1
    89   219   218   ar
    90   229   230   ar
    91   158   159    2
    92   222   220   ar
    93   215   214    1
    94   233   232   ar
    95   168   169    1
    96   207   206    1
    97   170   169   ar
    98   170   172   ar
    99   218   220   ar
   100   218   217    1
   101   206   209    1
   102   230   232   ar
   103   169   171   ar
   104   209   210    1
   105   217   214    1
   106   172   173   ar
   107    48    49    1
   108   214   213    1
   109   210   211    1
   110   210   212    1
   111    42    40   am
   112    70    68   ar
   113    70    71   ar
   114    49    50    1
   115    49    52    1
   116   171   173   ar
   117    62    63    1
   118    68    67   ar
   119    34    35    1
   120    35    36    1
   121    35    38    1
   122    39    40    1
   123    39    38    1
   124    51    50    2
   125    40    41    2
   126    37    36    2
   127    71    69   ar
   128   143   142    1
   129    36    43   am
   130   142   139    1
   131    67    69   ar
   132    67    66    1
   133   133   135   ar
   134   133   132   ar
   135   115   113    1
   136   135   137   ar
   137    52    53    1
   138    63    66    1
   139    63    64    1
   140   114   113    1
   141   131   132    1
   142   131   128    1
   143    45    46    2
   144    45    44    1
   145   132   134   ar
   146   113   112    2
   147   119   118    2
   148    43    44    1
   149   137   136   ar
   150    54    53   ar
   151    54    56   ar
   152    53    55   ar
   153   141   140    2
   154   140   139    1
   155   139   138    1
   156    64    65    2
   157   129   128    1
   158   129   130    2
   159    44    47    1
   160   134   136   ar
   161   112   111    1
   162   128   127    1
   163   118   117    1
   164    94    93    1
   165   103   104   ar
   166   103   101   ar
   167    56    57   ar
   168    55    58   ar
   169    55    57   ar
   170   104   102   ar
   171    27    26    2
   172   111   110    1
   173    58    60   ar
   174    57    59   ar
   175    93    90    1
   176    26    25    1
   177   117   120    1
   178   117   116    1
   179   120   121    1
   180   101   100   ar
   181   122   121   ar
   182   122   124   ar
   183    30    29   ar
   184    30    32   ar
   185    25    28    1
   186    25    24    1
   187    75    74    2
   188    28    29    1
   189   102   100   ar
   190    60    61   ar
   191    77    76    1
   192    76    78    1
   193    76    73    1
   194   110   109    1
   195    59    61   ar
   196   121   123   ar
   197    29    31   ar
   198    32    33   ar
   199    90    91    1
   200    90    89    1
   201   100    99    1
   202   124   126   ar
   203    92    91    2
   204    74    73    1
   205    74    79   am
   206    91    95   am
   207   109   106    1
   208    73    72    1
   209    31    33   ar
   210    95    96    1
   211   123   125   ar
   212    82    81    2
   213    21    20    2
   214    81    80    1
   215    81    83   am
   216   126   125   ar
   217    99    96    1
   218    80    79    1
   219    96    97    1
   220    84    83    1
   221    84    87    1
   222    84    85    1
   223    86    85    2
   224    88    87    1
   225   105   106    1
   226   106   107    1
   227    23    22    1
   228    19    20    1
   229    19    22    1
   230    19    18    1
   231    15    14    2
   232     7     8    1
   233     7     6    1
   234    97    98    2
   235     8     9    2
   236   107   108    2
   237    14    18   am
   238    14    13    1
   239     9    11    1
   240     9    10    1
   241    16    13    1
   242    16    17    1
   243     6     5    1
   244    13    12    1
   245     5     2    1
   246     4     3    2
   247     2     3    1
   248     2     1    1
