@<TRIPOS>MOLECULE
tmp/1ft5A01.pdb
 219 215 0 0 0
SMALL
GASTEIGER

@<TRIPOS>ATOM
      1  N        113.4830   70.9740   -1.0100 N.3    33  SER33      -0.1202
      2  CA       112.6800   72.0320   -1.6000 C.3    33  SER33       0.2020
      3  C        112.3530   73.1130   -0.6020 C.2    33  SER33       0.2618
      4  O        112.0560   74.2250   -1.0160 O.2    33  SER33      -0.2717
      5  CB       111.3910   71.4930   -2.1700 C.3    33  SER33       0.2103
      6  OG       111.6750   70.6670   -3.2990 O.3    33  SER33      -0.2182
      7  N        112.3610   72.7590    0.6770 N.am   34  LEU34      -0.1979
      8  CA       112.0300   73.7400    1.7300 C.3    34  LEU34       0.1596
      9  C        113.2390   74.5770    2.1190 C.2    34  LEU34       0.2287
     10  O        113.1130   75.4930    2.9430 O.2    34  LEU34      -0.2864
     11  CB       111.4350   73.0420    2.9770 C.3    34  LEU34       0.0297
     12  CG       110.1760   72.1860    2.7130 C.3    34  LEU34       0.0022
     13  CD1      109.5260   71.7850    4.0090 C.3    34  LEU34       0.0001
     14  CD2      109.1430   72.9880    1.8730 C.3    34  LEU34       0.0001
     15  N        114.7860   75.7050   -5.7910 N.3    39  LYS39      -0.1245
     16  CA       113.5540   75.8530   -6.5550 C.3    39  LYS39       0.1561
     17  C        113.0720   77.2840   -6.4550 C.2    39  LYS39       0.2260
     18  O        111.8820   77.5740   -6.2290 O.2    39  LYS39      -0.2867
     19  CB       112.4890   74.8530   -6.0890 C.3    39  LYS39       0.0271
     20  CG       112.9280   73.3950   -6.4900 C.3    39  LYS39       0.0035
     21  CD       111.7780   72.4250   -6.4740 C.3    39  LYS39       0.0206
     22  CE       112.1710   71.0500   -6.9900 C.3    39  LYS39       0.1093
     23  NZ       110.9610   70.1630   -7.0650 N.3    39  LYS39      -0.1314
     24  N        110.1480   78.2250   -9.0040 N.3    42  ALA42      -0.1231
     25  CA       108.8310   77.6980   -8.6090 C.3    42  ALA42       0.1694
     26  C        108.2550   78.4600   -7.4040 C.2    42  ALA42       0.2591
     27  O        107.0340   78.7540   -7.3660 O.2    42  ALA42      -0.2718
     28  CB       108.8980   76.1510   -8.2720 C.3    42  ALA42       0.0304
     29  N        109.1060   78.7740   -6.4410 N.am   43  LYS43      -0.1980
     30  CA       108.6340   79.5070   -5.2720 C.3    43  LYS43       0.1596
     31  C        108.1260   80.9140   -5.6750 C.2    43  LYS43       0.2287
     32  O        107.0900   81.3450   -5.2090 O.2    43  LYS43      -0.2864
     33  CB       109.7450   79.6520   -4.2530 C.3    43  LYS43       0.0298
     34  CG       110.0620   78.2900   -3.5400 C.3    43  LYS43       0.0038
     35  CD       111.3210   78.3670   -2.7000 C.3    43  LYS43       0.0206
     36  CE       111.4960   77.0680   -1.9610 C.3    43  LYS43       0.1093
     37  NZ       112.8750   76.9430   -1.4200 N.3    43  LYS43      -0.1314
     38  N        106.0100   82.6850   -2.9090 N.3    48  LEU48      -0.1245
     39  CA       106.7340   82.3320   -1.6940 C.3    48  LEU48       0.1561
     40  C        108.0940   83.0600   -1.7660 C.2    48  LEU48       0.2260
     41  O        108.4640   83.6030   -2.8220 O.2    48  LEU48      -0.2867
     42  CB       106.9690   80.8000   -1.6800 C.3    48  LEU48       0.0270
     43  CG       105.6420   80.0360   -1.6060 C.3    48  LEU48       0.0019
     44  CD1      105.9860   78.5410   -1.7050 C.3    48  LEU48       0.0001
     45  CD2      104.8580   80.3300   -0.3170 C.3    48  LEU48       0.0001
     46  N        112.3020   77.3160    4.9330 N.3    54  TYR54      -0.1241
     47  CA       110.9680   76.7670    5.3140 C.3    54  TYR54       0.1605
     48  C        111.1260   75.3720    5.9490 C.2    54  TYR54       0.2264
     49  O        110.0960   74.7380    6.2030 O.2    54  TYR54      -0.2867
     50  CB       110.0800   76.6020    4.0550 C.3    54  TYR54       0.0534
     51  CG       109.5980   77.9530    3.4820 C.ar   54  TYR54      -0.0201
     52  CD1      110.2220   78.4950    2.3620 C.ar   54  TYR54      -0.0009
     53  CD2      108.4880   78.6170    4.0300 C.ar   54  TYR54      -0.0009
     54  CE1      109.7530   79.6880    1.7460 C.ar   54  TYR54       0.0417
     55  CE2      108.0250   79.7750    3.4180 C.ar   54  TYR54       0.0417
     56  CZ       108.6440   80.2760    2.3000 C.ar   54  TYR54       0.1957
     57  OH       108.1260   81.4050    1.7010 O.3    54  TYR54      -0.2866
     58  N        109.1080   75.1780    9.1710 N.3    57  ASP57      -0.1239
     59  CA       107.8480   75.9080    9.1180 C.3    57  ASP57       0.1674
     60  C        106.6890   74.9080    9.1390 C.2    57  ASP57       0.2266
     61  O        106.5590   74.0630    8.2430 O.2    57  ASP57      -0.2867
     62  CB       107.8530   76.7530    7.8510 C.3    57  ASP57       0.1410
     63  CG       106.6760   77.7780    7.7960 C.2    57  ASP57       0.3668
     64  OD1      105.6430   77.5310    8.4430 O.co2  57  ASP57      -0.2456
     65  OD2      106.8340   78.8240    7.1150 O.co2  57  ASP57      -0.2456
     66  N        103.7580   75.3930    8.4170 N.3    59  ASP59      -0.1225
     67  CA       102.8450   75.5820    7.2740 C.3    59  ASP59       0.1805
     68  C        103.4020   74.8330    6.0420 C.2    59  ASP59       0.2598
     69  O        102.7460   74.8430    4.9920 O.2    59  ASP59      -0.2718
     70  CB       102.7510   77.0620    6.8260 C.3    59  ASP59       0.1424
     71  CG       102.1370   77.9540    7.8690 C.2    59  ASP59       0.3668
     72  OD1      101.3940   77.4200    8.6820 O.co2  59  ASP59      -0.2456
     73  OD2      102.4010   79.1860    7.8220 O.co2  59  ASP59      -0.2456
     74  N        104.5750   74.1350    6.1710 N.am   60  CYS60      -0.1970
     75  CA       105.1700   73.4840    4.9800 C.3    60  CYS60       0.1712
     76  C        105.6220   72.0590    5.1990 C.2    60  CYS60       0.2296
     77  O        105.3820   71.1770    4.3340 O.2    60  CYS60      -0.2864
     78  CB       106.4240   74.2030    4.4850 C.3    60  CYS60       0.0983
     79  SG       106.2400   76.0010    4.2950 S.3    60  CYS60      -0.0798
     80  N        104.6000   69.4380    6.7680 N.3    62  GLY62      -0.1210
     81  CA       103.7210   68.2970    6.8670 C.3    62  GLY62       0.1956
     82  C        103.5520   67.5130    5.5890 C.2    62  GLY62       0.2612
     83  O        103.1610   66.3410    5.6390 O.2    62  GLY62      -0.2717
     84  N        103.7850   68.1710    4.4560 N.am   63  CYS63      -0.1956
     85  CA       103.6320   67.4100    3.2160 C.3    63  CYS63       0.1843
     86  C        104.9750   67.0370    2.6120 C.2    63  CYS63       0.2625
     87  O        105.0360   66.5110    1.5000 O.2    63  CYS63      -0.2714
     88  CB       102.8370   68.2420    2.1970 C.3    63  CYS63       0.0997
     89  SG       101.1570   68.5170    2.7910 S.3    63  CYS63      -0.0797
     90  N        106.0500   67.3050    3.3290 N.am   64  HIS64      -0.1973
     91  CA       107.4000   67.0470    2.8550 C.3    64  HIS64       0.1656
     92  C        108.1910   66.0530    3.7310 C.2    64  HIS64       0.2291
     93  O        109.4020   65.9350    3.5820 O.2    64  HIS64      -0.2864
     94  CB       108.1630   68.3710    2.7680 C.3    64  HIS64       0.0771
     95  CG       107.6720   69.2640    1.6400 C.ar   64  HIS64       0.0820
     96  ND1      108.3900   69.5060    0.4890 N.ar   64  HIS64      -0.2267
     97  CD2      106.4950   69.9470    1.4820 C.ar   64  HIS64       0.1154
     98  CE1      107.6620   70.3120   -0.3230 C.ar   64  HIS64       0.1986
     99  NE2      106.5040   70.5790    0.2330 N.ar   64  HIS64      -0.2212
    100  N         95.7200   63.7530    0.4510 N.3   136  ALA136     -0.1231
    101  CA        95.9450   64.6200    1.6110 C.3   136  ALA136      0.1694
    102  C         97.1180   65.5960    1.4380 C.2   136  ALA136      0.2592
    103  O         97.1930   66.6300    2.1160 O.2   136  ALA136     -0.2718
    104  CB        96.1450   63.7540    2.8470 C.3   136  ALA136      0.0304
    105  N         98.0540   65.2570    0.5290 N.am  137  CYS137     -0.1956
    106  CA        99.1460   66.1680    0.2350 C.3   137  CYS137      0.1843
    107  C         98.8550   66.9120   -1.1110 C.2   137  CYS137      0.2625
    108  O         98.9620   68.1440   -1.1820 O.2   137  CYS137     -0.2714
    109  CB       100.4570   65.4610    0.0750 C.3   137  CYS137      0.0997
    110  SG       100.9140   64.6920    1.6490 S.3   137  CYS137     -0.0797
    111  N         98.4640   66.1660   -2.1420 N.am  138  HIS138     -0.1973
    112  CA        98.3490   66.7440   -3.4700 C.3   138  HIS138      0.1656
    113  C         97.0710   67.5120   -3.7780 C.2   138  HIS138      0.2291
    114  O         97.0890   68.3650   -4.6670 O.2   138  HIS138     -0.2864
    115  CB        98.5070   65.6170   -4.4970 C.3   138  HIS138      0.0771
    116  CG        99.9100   65.1780   -4.6830 C.ar  138  HIS138      0.0820
    117  ND1      100.7100   65.7290   -5.6530 N.ar  138  HIS138     -0.2267
    118  CD2      100.6890   64.2840   -3.9920 C.ar  138  HIS138      0.1154
    119  CE1      101.9330   65.1920   -5.5370 C.ar  138  HIS138      0.1986
    120  NE2      101.9610   64.3130   -4.5540 N.ar  138  HIS138     -0.2212
    121  N         95.2100   69.0640   -1.2850 N.3   140  ASN140     -0.1240
    122  CA        94.8480   69.7720   -0.0640 C.3   140  ASN140      0.1653
    123  C         94.9830   71.2530   -0.2960 C.2   140  ASN140      0.2266
    124  O         96.0150   71.8610    0.0170 O.2   140  ASN140     -0.2867
    125  CB        95.7450   69.3540    1.1080 C.3   140  ASN140      0.1155
    126  CG        95.1990   69.8450    2.4100 C.2   140  ASN140      0.2627
    127  OD1       94.0650   69.5090    2.7470 O.2   140  ASN140     -0.2716
    128  ND2       95.9740   70.6130    3.1760 N.am  140  ASN140     -0.0877
    129  N         97.1500   73.6350    6.8770 N.3   152  PRO152     -0.2102
    130  CA        97.8080   74.4270    5.8200 C.3   152  PRO152      0.1504
    131  C         97.6810   73.7730    4.4530 C.2   152  PRO152      0.2576
    132  O         97.7460   72.5600    4.3050 O.2   152  PRO152     -0.2718
    133  CB        99.2700   74.5430    6.2630 C.3   152  PRO152      0.0282
    134  CG        99.4710   73.4070    7.2080 C.3   152  PRO152      0.0208
    135  CD        98.1220   72.9590    7.7790 C.3   152  PRO152      0.0893
    136  N         97.4480   74.6000    3.4340 N.am  153  TYR153     -0.1963
    137  CA        97.2770   74.1360    2.0580 C.3   153  TYR153      0.1771
    138  C         98.5600   74.1120    1.2680 C.2   153  TYR153      0.2620
    139  O         99.5220   74.8420    1.5950 O.2   153  TYR153     -0.2715
    140  CB        96.3170   75.1110    1.3120 C.3   153  TYR153      0.0574
    141  CG        94.9620   75.1570    1.9200 C.ar  153  TYR153     -0.0198
    142  CD1       94.4010   76.3940    2.2980 C.ar  153  TYR153     -0.0009
    143  CD2       94.2220   74.0120    2.1130 C.ar  153  TYR153     -0.0009
    144  CE1       93.1180   76.4540    2.8480 C.ar  153  TYR153      0.0417
    145  CE2       92.9140   74.0570    2.6740 C.ar  153  TYR153      0.0417
    146  CZ        92.3850   75.2900    3.0230 C.ar  153  TYR153      0.1957
    147  OH        91.0720   75.3580    3.4960 O.3   153  TYR153     -0.2866
    148  N         98.5780   73.2850    0.2160 N.am  154  THR154     -0.1937
    149  CA        99.7380   73.2960   -0.6370 C.3   154  THR154      0.2013
    150  C         99.7240   74.6090   -1.4460 C.2   154  THR154      0.2484
    151  O         98.6470   75.0520   -1.9320 O.2   154  THR154     -0.2729
    152  CB        99.7430   72.1160   -1.6600 C.3   154  THR154      0.1807
    153  OG1      100.8460   72.3270   -2.5370 O.3   154  THR154     -0.2208
    154  CG2       98.3770   71.9930   -2.4670 C.3   154  THR154      0.0379
    155  N        100.8790   75.2800   -1.5140 N.am  155  PRO155     -0.2715
    156  CA       100.9160   76.5210   -2.3130 C.3   155  PRO155      0.1536
    157  C        100.8920   76.2120   -3.8090 C.2   155  PRO155      0.2598
    158  O        100.7560   77.1420   -4.6170 O.2   155  PRO155     -0.2715
    159  CB       102.2780   77.1470   -1.9600 C.3   155  PRO155      0.0310
    160  CG       102.7640   76.4810   -0.6740 C.3   155  PRO155      0.0237
    161  CD       102.1480   75.0600   -0.7580 C.3   155  PRO155      0.0939
    162  N        101.1290   74.9430   -4.1780 N.am  156  PHE156     -0.1974
    163  CA       101.2770   74.5610   -5.6060 C.3   156  PHE156      0.1639
    164  C        100.0270   73.9390   -6.1320 C.2   156  PHE156      0.2290
    165  O         99.8420   72.7220   -6.1590 O.2   156  PHE156     -0.2864
    166  CB       102.5510   73.6250   -5.7540 C.3   156  PHE156      0.0560
    167  CG       103.7930   74.3570   -5.3370 C.ar  156  PHE156     -0.0200
    168  CD1      104.2390   74.2960   -4.0010 C.ar  156  PHE156     -0.0042
    169  CD2      104.4220   75.2100   -6.2240 C.ar  156  PHE156     -0.0042
    170  CE1      105.2730   75.0630   -3.5610 C.ar  156  PHE156     -0.0003
    171  CE2      105.5330   76.0160   -5.7530 C.ar  156  PHE156     -0.0003
    172  CZ       105.9300   75.9040   -4.3950 C.ar  156  PHE156     -0.0000
    173  N        100.3920   72.3320  -14.2820 N.3   163  LYS163     -0.1231
    174  CA       101.2220   71.1690  -14.0300 C.3   163  LYS163      0.1693
    175  C        101.0130   70.6060  -12.6420 C.2   163  LYS163      0.2592
    176  O        101.3580   69.4530  -12.4120 O.2   163  LYS163     -0.2718
    177  CB       102.7020   71.4510  -14.2680 C.3   163  LYS163      0.0285
    178  CG       103.3980   72.1040  -13.1280 C.3   163  LYS163      0.0035
    179  CD       104.5370   72.8920  -13.6860 C.3   163  LYS163      0.0206
    180  CE       105.6880   72.8960  -12.7760 C.3   163  LYS163      0.1093
    181  NZ       106.8440   73.5580  -13.4780 N.3   163  LYS163     -0.1314
    182  N        100.3550   71.3510  -11.7580 N.am  164  TYR164     -0.1962
    183  CA       100.0760   70.8400  -10.3900 C.3   164  TYR164      0.1771
    184  C         98.6970   70.1270  -10.3050 C.2   164  TYR164      0.2620
    185  O         98.2380   69.7770   -9.1960 O.2   164  TYR164     -0.2715
    186  CB       100.1620   71.9860   -9.3700 C.3   164  TYR164      0.0574
    187  CG       101.5040   72.6330   -9.3170 C.ar  164  TYR164     -0.0198
    188  CD1      101.6330   74.0020   -9.5170 C.ar  164  TYR164     -0.0009
    189  CD2      102.6690   71.9020   -9.1070 C.ar  164  TYR164     -0.0009
    190  CE1      102.8710   74.5980   -9.5140 C.ar  164  TYR164      0.0417
    191  CE2      103.9050   72.4790   -9.1020 C.ar  164  TYR164      0.0417
    192  CZ       104.0350   73.8330   -9.3040 C.ar  164  TYR164      0.1957
    193  OH       105.2790   74.3890   -9.3480 O.3   164  TYR164     -0.2866
    194  N         98.0030   69.9550  -11.4470 N.am  165  THR165     -0.1937
    195  CA        96.7580   69.2280  -11.4550 C.3   165  THR165      0.2028
    196  C         97.1310   67.7480  -11.1450 C.2   165  THR165      0.2642
    197  O         98.0880   67.1840  -11.7390 O.2   165  THR165     -0.2714
    198  CB        96.1150   69.2940  -12.8400 C.3   165  THR165      0.1808
    199  OG1       95.9880   70.6820  -13.2000 O.3   165  THR165     -0.2208
    200  CG2       94.7560   68.6040  -12.8290 C.3   165  THR165      0.0379
    201  N         96.3280   67.1500  -10.2810 N.am  166  PHE166     -0.1973
    202  CA        96.6050   65.8140   -9.7920 C.3   166  PHE166      0.1639
    203  C         95.4970   64.8590  -10.0620 C.2   166  PHE166      0.2290
    204  O         94.3790   65.0620   -9.6030 O.2   166  PHE166     -0.2864
    205  CB        96.8590   65.8390   -8.2720 C.3   166  PHE166      0.0560
    206  CG        97.2050   64.4690   -7.7000 C.ar  166  PHE166     -0.0200
    207  CD1       98.5190   64.0100   -7.7760 C.ar  166  PHE166     -0.0042
    208  CD2       96.2260   63.6900   -7.0980 C.ar  166  PHE166     -0.0042
    209  CE1       98.8670   62.7610   -7.2360 C.ar  166  PHE166     -0.0003
    210  CE2       96.5860   62.4080   -6.5470 C.ar  166  PHE166     -0.0003
    211  CZ        97.9150   61.9890   -6.6320 C.ar  166  PHE166     -0.0000
    212  N         98.7580   59.5590  -12.0580 N.3   171  MET171     -0.1245
    213  CA       100.0120   59.7390  -11.4180 C.3   171  MET171      0.1570
    214  C        100.5320   58.5680  -10.6120 C.2   171  MET171      0.2261
    215  O        101.7220   58.4900  -10.4290 O.2   171  MET171     -0.2867
    216  CB        99.9650   61.0330  -10.6210 C.3   171  MET171      0.0387
    217  CG       100.7360   62.0840  -11.4600 C.3   171  MET171      0.0595
    218  SD       100.0880   63.6770  -11.3030 S.3   171  MET171     -0.1393
    219  CE       100.4630   64.4300  -12.9720 C.3   171  MET171      0.0692
@<TRIPOS>BOND
     1   173   174    1
     2   177   174    1
     3   177   178    1
     4   174   175    1
     5   179   178    1
     6   179   180    1
     7   181   180    1
     8   199   198    1
     9   219   218    1
    10   198   200    1
    11   198   195    1
    12   175   176    2
    13   175   182   am
    14   212   213    1
    15   182   183    1
    16   197   196    2
    17   217   218    1
    18   217   216    1
    19   195   194    1
    20   195   196    1
    21   194   184   am
    22   213   216    1
    23   213   214    1
    24   196   201   am
    25   214   215    2
    26   183   184    1
    27   183   186    1
    28   184   185    2
    29   201   202    1
    30   203   202    1
    31   203   204    2
    32   202   205    1
    33   188   190   ar
    34   188   187   ar
    35   190   192   ar
    36   186   187    1
    37   193   192    1
    38   187   189   ar
    39   192   191   ar
    40   189   191   ar
    41    24    25    1
    42    25    28    1
    43    25    26    1
    44   205   206    1
    45   207   206   ar
    46   207   209   ar
    47   206   208   ar
    48    26    27    2
    49    26    29   am
    50   209   211   ar
    51   208   210   ar
    52    23    22    1
    53    22    21    1
    54   211   210   ar
    55    16    17    1
    56    16    19    1
    57    16    15    1
    58    20    21    1
    59    20    19    1
    60    17    18    2
    61    29    30    1
    62   169   171   ar
    63   169   167   ar
    64   165   164    2
    65   164   163    1
    66   166   163    1
    67   166   167    1
    68   171   172   ar
    69    31    30    1
    70    31    32    2
    71   117   119   ar
    72   117   116   ar
    73   163   162    1
    74   119   120   ar
    75   167   168   ar
    76    30    33    1
    77   116   115    1
    78   116   118   ar
    79   114   113    2
    80   158   157    2
    81   120   118   ar
    82   115   112    1
    83   172   170   ar
    84    33    34    1
    85   162   157   am
    86   168   170   ar
    87   157   156    1
    88   113   112    1
    89    34    35    1
    90   112   111    1
    91     6     5    1
    92    38    39    1
    93    41    40    2
    94    35    36    1
    95   153   152    1
    96   154   152    1
    97   156   159    1
    98   156   155    1
    99     5     2    1
   100   111   107   am
   101    36    37    1
   102   159   160    1
   103   151   150    2
   104    40    39    1
   105    44    43    1
   106    39    42    1
   107    42    43    1
   108   152   149    1
   109    43    45    1
   110     2     1    1
   111     2     3    1
   112   155   150   am
   113   155   161    1
   114   150   149    1
   115   121   122    1
   116   108   107    2
   117   107   106    1
   118     4     3    2
   119   161   160    1
   120   149   148    1
   121     3     7   am
   122    98    99   ar
   123    98    96   ar
   124   123   122    1
   125   123   124    2
   126   122   125    1
   127   109   106    1
   128   109   110    1
   129   148   138   am
   130    99    97   ar
   131   106   105    1
   132   100   101    1
   133    96    95   ar
   134   105   102   am
   135     7     8    1
   136   125   126    1
   137   138   139    2
   138   138   137    1
   139   140   141    1
   140   140   137    1
   141   102   101    1
   142   102   103    2
   143    97    95   ar
   144    87    86    2
   145   101   104    1
   146    95    94    1
   147    57    56    1
   148     8     9    1
   149     8    11    1
   150    54    56   ar
   151    54    52   ar
   152    14    12    1
   153   141   143   ar
   154   141   142   ar
   155   137   136    1
   156   143   145   ar
   157     9    10    2
   158    88    89    1
   159    88    85    1
   160   142   144   ar
   161    56    55   ar
   162    52    51   ar
   163   126   127    2
   164   126   128   am
   165    86    85    1
   166    86    90   am
   167   145   146   ar
   168    12    11    1
   169    12    13    1
   170    94    91    1
   171   144   146   ar
   172    91    90    1
   173    91    92    1
   174   146   147    1
   175    85    84    1
   176    55    53   ar
   177   136   131   am
   178    51    53   ar
   179    51    50    1
   180    93    92    2
   181    50    47    1
   182    79    78    1
   183   132   131    2
   184    77    76    2
   185   131   130    1
   186    84    82   am
   187    78    75    1
   188    46    47    1
   189    75    76    1
   190    75    74    1
   191    69    68    2
   192    47    48    1
   193    82    83    2
   194    82    81    1
   195   130   133    1
   196   130   129    1
   197    48    49    2
   198    68    74   am
   199    68    67    1
   200   133   134    1
   201    80    81    1
   202    70    67    1
   203    70    71    1
   204   129   135    1
   205    65    63   ar
   206   134   135    1
   207    67    66    1
   208    63    62    1
   209    63    64   ar
   210    73    71   ar
   211    62    59    1
   212    71    72   ar
   213    61    60    2
   214    59    60    1
   215    59    58    1
