@<TRIPOS>MOLECULE
tmp/1ft6A03.pdb
 193 184 0 0 0
SMALL
GASTEIGER

@<TRIPOS>ATOM
      1  N        111.1620   62.1780   -6.6240 N.3    26  ALA26      -0.1231
      2  CA       110.9790   63.5110   -6.0510 C.3    26  ALA26       0.1694
      3  C        110.5030   63.3830   -4.6030 C.2    26  ALA26       0.2592
      4  O        110.8390   64.2110   -3.7450 O.2    26  ALA26      -0.2718
      5  CB       109.9590   64.2610   -6.8730 C.3    26  ALA26       0.0304
      6  N        109.7180   62.3500   -4.3230 N.am   27  HIS27      -0.1976
      7  CA       109.2180   62.1380   -2.9720 C.3    27  HIS27       0.1656
      8  C        110.3610   62.0630   -1.9580 C.2    27  HIS27       0.2291
      9  O        110.2670   62.6460   -0.8720 O.2    27  HIS27      -0.2864
     10  CB       108.4040   60.8400   -2.8890 C.3    27  HIS27       0.0771
     11  CG       107.0100   60.9770   -3.3960 C.ar   27  HIS27       0.0820
     12  ND1      106.3840   60.0550   -4.2100 N.ar   27  HIS27      -0.2267
     13  CD2      106.1030   61.9550   -3.1820 C.ar   27  HIS27       0.1154
     14  CE1      105.1460   60.4970   -4.4590 C.ar   27  HIS27       0.1986
     15  NE2      104.9400   61.6480   -3.8470 N.ar   27  HIS27      -0.2212
     16  N        113.2360   63.3660   -2.0420 N.3    29  LYS29      -0.1231
     17  CA       113.8800   64.6690   -1.8790 C.3    29  LYS29       0.1693
     18  C        112.9210   65.8120   -1.5470 C.2    29  LYS29       0.2591
     19  O        113.3030   66.9880   -1.6650 O.2    29  LYS29      -0.2718
     20  CB       114.6180   65.0210   -3.1580 C.3    29  LYS29       0.0285
     21  CG       115.4010   63.8660   -3.7410 C.3    29  LYS29       0.0035
     22  CD       115.7440   64.1780   -5.2010 C.3    29  LYS29       0.0206
     23  CE       115.6430   62.9470   -6.0710 C.3    29  LYS29       0.1093
     24  NZ       116.2930   63.1900   -7.3890 N.3    29  LYS29      -0.1314
     25  N        111.7100   65.4770   -1.1150 N.am   30  ALA30      -0.1980
     26  CA       110.6870   66.4750   -0.7860 C.3    30  ALA30       0.1597
     27  C        111.1550   67.5450    0.1880 C.2    30  ALA30       0.2287
     28  O        110.7510   68.7130    0.0880 O.2    30  ALA30      -0.2864
     29  CB       109.4630   65.7920   -0.2170 C.3    30  ALA30       0.0319
     30  N        113.1360   70.6120   -1.2860 N.3    33  SER33      -0.1217
     31  CA       112.3100   71.6830   -1.8940 C.3    33  SER33       0.1889
     32  C        111.9840   72.8120   -0.9040 C.2    33  SER33       0.2288
     33  O        111.7150   73.9670   -1.3250 O.2    33  SER33      -0.2866
     34  CB       111.0020   71.1270   -2.4540 C.3    33  SER33       0.2089
     35  OG       111.2490   70.3280   -3.5990 O.3    33  SER33      -0.2183
     36  N        114.4270   75.4840   -6.1060 N.3    39  LYS39      -0.1245
     37  CA       113.1690   75.5990   -6.8390 C.3    39  LYS39       0.1561
     38  C        112.6110   77.0310   -6.7700 C.2    39  LYS39       0.2260
     39  O        111.4000   77.2680   -6.5670 O.2    39  LYS39      -0.2867
     40  CB       112.1360   74.5600   -6.3240 C.3    39  LYS39       0.0271
     41  CG       112.5680   73.0440   -6.5990 C.3    39  LYS39       0.0035
     42  CD       111.4150   72.0490   -6.5540 C.3    39  LYS39       0.0206
     43  CE       111.7620   70.6940   -7.1720 C.3    39  LYS39       0.1093
     44  NZ       110.5660   69.8360   -7.4480 N.3    39  LYS39      -0.1314
     45  N        104.3330   69.3260    6.6010 N.3    62  GLY62      -0.1210
     46  CA       103.3980   68.2430    6.7230 C.3    62  GLY62       0.1956
     47  C        103.1780   67.4140    5.4910 C.2    62  GLY62       0.2612
     48  O        102.6650   66.3110    5.6070 O.2    62  GLY62      -0.2717
     49  N        103.4920   67.9510    4.3190 N.am   63  CYS63      -0.1956
     50  CA       103.2730   67.1590    3.0970 C.3    63  CYS63       0.1843
     51  C        104.6020   66.7890    2.4880 C.2    63  CYS63       0.2625
     52  O        104.6610   66.2800    1.3750 O.2    63  CYS63      -0.2714
     53  CB       102.4750   67.9590    2.0680 C.3    63  CYS63       0.0997
     54  SG       100.8030   68.2870    2.6300 S.3    63  CYS63      -0.0797
     55  N        105.6760   67.0210    3.2280 N.am   64  HIS64      -0.1959
     56  CA       106.9930   66.7420    2.6990 C.3    64  HIS64       0.1787
     57  C        107.7600   65.7780    3.6120 C.2    64  HIS64       0.2620
     58  O        108.9650   65.6470    3.4700 O.2    64  HIS64      -0.2715
     59  CB       107.7550   68.0460    2.5690 C.3    64  HIS64       0.0785
     60  CG       107.2990   68.9250    1.4260 C.ar   64  HIS64       0.0821
     61  ND1      108.0600   69.1700    0.3090 N.ar   64  HIS64      -0.2267
     62  CD2      106.1450   69.6360    1.2590 C.ar   64  HIS64       0.1154
     63  CE1      107.3890   69.9970   -0.5020 C.ar   64  HIS64       0.1986
     64  NE2      106.2230   70.3060    0.0250 N.ar   64  HIS64      -0.2212
     65  N        107.0330   65.1270    4.5200 N.am   65  VAL65      -0.1977
     66  CA       107.6090   64.1790    5.4880 C.3    65  VAL65       0.1596
     67  C        106.5610   63.1260    5.7610 C.2    65  VAL65       0.2287
     68  O        105.4040   63.2560    5.3450 O.2    65  VAL65      -0.2864
     69  CB       107.8840   64.8960    6.8750 C.3    65  VAL65       0.0276
     70  CG1      108.7560   66.1430    6.6830 C.3    65  VAL65       0.0022
     71  CG2      106.5060   65.3280    7.5090 C.3    65  VAL65       0.0022
     72  N        108.9140   62.1000    1.5880 N.3    86  VAL86      -0.1245
     73  CA       107.6950   61.3390    1.5760 C.3    86  VAL86       0.1561
     74  C        108.1390   59.9080    1.3550 C.2    86  VAL86       0.2260
     75  O        108.4720   59.5410    0.2390 O.2    86  VAL86      -0.2867
     76  CB       106.7980   61.8350    0.4240 C.3    86  VAL86       0.0252
     77  CG1      105.5390   60.9830    0.3610 C.3    86  VAL86       0.0019
     78  CG2      106.4380   63.3480    0.6920 C.3    86  VAL86       0.0019
     79  N        104.1360   56.8090    4.1970 N.3    90  SER90      -0.1202
     80  CA       103.2270   57.8520    3.6860 C.3    90  SER90       0.2020
     81  C        102.2530   57.2530    2.6800 C.2    90  SER90       0.2619
     82  O        101.1320   57.7960    2.4970 O.2    90  SER90      -0.2717
     83  CB       104.0000   59.0120    3.0240 C.3    90  SER90       0.2103
     84  OG       104.4560   59.9530    3.9860 O.3    90  SER90      -0.2182
     85  N        102.6420   56.1520    2.0060 N.am   91  CYS91      -0.1969
     86  CA       101.7150   55.5130    1.0500 C.3    91  CYS91       0.1712
     87  C        101.1670   54.1750    1.5330 C.2    91  CYS91       0.2296
     88  O         99.9740   53.9010    1.4300 O.2    91  CYS91      -0.2864
     89  CB       102.4100   55.2870   -0.2930 C.3    91  CYS91       0.0983
     90  SG       102.8280   56.8440   -1.1340 S.3    91  CYS91      -0.0798
     91  N         95.4050   53.3470   -1.2640 N.3   130  PHE130     -0.1241
     92  CA        96.2600   54.5170   -1.5040 C.3   130  PHE130      0.1605
     93  C         95.6330   55.8760   -1.8790 C.2   130  PHE130      0.2264
     94  O         96.1550   56.9150   -1.4660 O.2   130  PHE130     -0.2867
     95  CB        97.3170   54.2390   -2.6120 C.3   130  PHE130      0.0534
     96  CG        98.1850   53.0090   -2.3800 C.ar  130  PHE130     -0.0203
     97  CD1       97.8850   51.8010   -3.0250 C.ar  130  PHE130     -0.0042
     98  CD2       99.2910   53.0670   -1.5560 C.ar  130  PHE130     -0.0042
     99  CE1       98.6940   50.6670   -2.8260 C.ar  130  PHE130     -0.0003
    100  CE2      100.1160   51.9320   -1.3500 C.ar  130  PHE130     -0.0003
    101  CZ        99.8090   50.7450   -1.9870 C.ar  130  PHE130     -0.0000
    102  N         95.3430   58.6230    0.8560 N.3   133  ARG133     -0.1231
    103  CA        96.6150   59.1600    1.3020 C.3   133  ARG133      0.1694
    104  C         97.2640   60.0770    0.2730 C.2   133  ARG133      0.2592
    105  O         97.7840   61.1440    0.6410 O.2   133  ARG133     -0.2718
    106  CB        97.6230   58.0370    1.6690 C.3   133  ARG133      0.0321
    107  CG        97.2590   57.3010    2.9680 C.3   133  ARG133      0.0489
    108  CD        98.2110   56.1270    3.3160 C.3   133  ARG133      0.2205
    109  NE        97.6260   55.3850    4.4420 N.pl3 133  ARG133     -0.0865
    110  CZ        97.7970   55.7380    5.7120 C.cat 133  ARG133      0.5346
    111  NH1       98.5310   56.7950    5.9930 N.pl3 133  ARG133      0.1354
    112  NH2       97.1820   55.0800    6.6880 N.pl3 133  ARG133      0.1354
    113  N         97.2680   59.6990   -1.0100 N.am  134  CYS134     -0.1970
    114  CA        97.9090   60.6010   -1.9780 C.3   134  CYS134      0.1712
    115  C         97.1060   61.9080   -1.9900 C.2   134  CYS134      0.2296
    116  O         97.6800   62.9880   -2.1040 O.2   134  CYS134     -0.2864
    117  CB        97.9030   60.0960   -3.4340 C.3   134  CYS134      0.0983
    118  SG        98.2100   58.3270   -3.7760 S.3   134  CYS134     -0.0798
    119  N         97.6590   64.9700    0.3960 N.3   137  CYS137     -0.1221
    120  CA        98.7410   65.8670    0.0700 C.3   137  CYS137      0.1808
    121  C         98.4920   66.5890   -1.2490 C.2   137  CYS137      0.2601
    122  O         98.4880   67.8080   -1.3060 O.2   137  CYS137     -0.2717
    123  CB       100.0660   65.1530   -0.0670 C.3   137  CYS137      0.0970
    124  SG       100.6560   64.4760    1.5110 S.3   137  CYS137     -0.0800
    125  N         98.2620   65.8360   -2.3040 N.am  138  HIS138     -0.1975
    126  CA        98.1090   66.4150   -3.6260 C.3   138  HIS138      0.1656
    127  C         96.8270   67.1850   -3.9310 C.2   138  HIS138      0.2291
    128  O         96.8580   68.1380   -4.7370 O.2   138  HIS138     -0.2864
    129  CB        98.2460   65.3040   -4.6820 C.3   138  HIS138      0.0771
    130  CG        99.6470   64.8610   -4.8910 C.ar  138  HIS138      0.0820
    131  ND1      100.5100   65.4120   -5.8170 N.ar  138  HIS138     -0.2267
    132  CD2      100.3580   63.9150   -4.2190 C.ar  138  HIS138      0.1154
    133  CE1      101.6850   64.8040   -5.6770 C.ar  138  HIS138      0.1986
    134  NE2      101.6020   63.9040   -4.7250 N.ar  138  HIS138     -0.2212
    135  N         96.2940   66.7690  -10.3730 N.3   166  PHE166     -0.1241
    136  CA        96.4970   65.3980   -9.9000 C.3   166  PHE166      0.1605
    137  C         95.3140   64.4820  -10.1410 C.2   166  PHE166      0.2264
    138  O         94.2270   64.7890   -9.6950 O.2   166  PHE166     -0.2867
    139  CB        96.7550   65.4170   -8.3850 C.3   166  PHE166      0.0534
    140  CG        97.0930   64.0820   -7.8090 C.ar  166  PHE166     -0.0203
    141  CD1       98.4090   63.6570   -7.7490 C.ar  166  PHE166     -0.0042
    142  CD2       96.0770   63.2550   -7.3170 C.ar  166  PHE166     -0.0042
    143  CE1       98.7120   62.4020   -7.1830 C.ar  166  PHE166     -0.0003
    144  CE2       96.3570   62.0020   -6.7580 C.ar  166  PHE166     -0.0003
    145  CZ        97.6710   61.5870   -6.6900 C.ar  166  PHE166     -0.0000
    146  N         94.5520   60.4570   -9.5250 N.3   168  PHE168     -0.1241
    147  CA        95.1320   59.2330   -8.9370 C.3   168  PHE168      0.1605
    148  C         95.4220   58.1060   -9.9240 C.2   168  PHE168      0.2264
    149  O         96.5290   57.5720   -9.9590 O.2   168  PHE168     -0.2867
    150  CB        94.2320   58.6870   -7.8070 C.3   168  PHE168      0.0534
    151  CG        94.7350   57.3920   -7.2180 C.ar  168  PHE168     -0.0203
    152  CD1       95.8640   57.3830   -6.4000 C.ar  168  PHE168     -0.0042
    153  CD2       94.1480   56.1770   -7.5590 C.ar  168  PHE168     -0.0042
    154  CE1       96.4050   56.1940   -5.9410 C.ar  168  PHE168     -0.0003
    155  CE2       94.6940   54.9760   -7.0950 C.ar  168  PHE168     -0.0003
    156  CZ        95.8240   54.9940   -6.2880 C.ar  168  PHE168     -0.0000
    157  N         98.5400   59.3330  -11.9920 N.3   171  MET171     -0.1230
    158  CA        99.7790   59.5550  -11.2650 C.3   171  MET171      0.1702
    159  C        100.3460   58.3260  -10.5840 C.2   171  MET171      0.2592
    160  O        101.5690   58.2100  -10.4570 O.2   171  MET171     -0.2718
    161  CB        99.6030   60.6220  -10.1860 C.3   171  MET171      0.0401
    162  CG        98.9460   61.9000  -10.6350 C.3   171  MET171      0.0596
    163  SD       100.1940   62.9570  -11.3770 S.3   171  MET171     -0.1393
    164  CE        99.9930   62.3140  -13.0690 C.3   171  MET171      0.0692
    165  N         99.4820   57.4270  -10.1260 N.am  172  VAL172     -0.1980
    166  CA       100.0140   56.2500   -9.4420 C.3   172  VAL172      0.1595
    167  C        100.8170   55.3830  -10.4040 C.2   172  VAL172      0.2287
    168  O        101.6630   54.5650   -9.9850 O.2   172  VAL172     -0.2864
    169  CB        98.8670   55.4410   -8.7340 C.3   172  VAL172      0.0276
    170  CG1       98.0220   54.6570   -9.7500 C.3   172  VAL172      0.0022
    171  CG2       99.5090   54.4650   -7.6820 C.3   172  VAL172      0.0022
    172  N        102.7970   56.7880  -12.6750 N.3   174  GLU174     -0.1245
    173  CA       103.8400   57.6760  -13.1870 C.3   174  GLU174      0.1567
    174  C        105.2270   57.1550  -12.9150 C.2   174  GLU174      0.2260
    175  O        105.8850   57.5270  -11.9340 O.2   174  GLU174     -0.2867
    176  CB       103.6700   59.0840  -12.6060 C.3   174  GLU174      0.0388
    177  CG       104.6370   60.1330  -13.1160 C.3   174  GLU174      0.1160
    178  CD       104.7720   60.1190  -14.6470 C.2   174  GLU174      0.3649
    179  OE1      105.8870   59.7770  -15.1130 O.co2 174  GLU174     -0.2457
    180  OE2      103.7740   60.4440  -15.3560 O.co2 174  GLU174     -0.2457
    181  N        108.1940   59.0160  -11.4150 N.3   177  ALA177     -0.1231
    182  CA       108.1860   59.5230  -10.0460 C.3   177  ALA177      0.1694
    183  C        107.7720   58.5750   -8.9420 C.2   177  ALA177      0.2591
    184  O        107.7640   58.9500   -7.7700 O.2   177  ALA177     -0.2718
    185  CB       107.3290   60.7880   -9.9960 C.3   177  ALA177      0.0304
    186  N        107.3930   57.3520   -9.2940 N.am  178  MET178     -0.1979
    187  CA       107.0380   56.3430   -8.2870 C.3   178  MET178      0.1605
    188  C        108.1830   55.3090   -8.3090 C.2   178  MET178      0.2287
    189  O        108.8540   55.2000   -9.3410 O.2   178  MET178     -0.2864
    190  CB       105.7290   55.6650   -8.6800 C.3   178  MET178      0.0413
    191  CG       104.5870   56.6330   -8.9020 C.3   178  MET178      0.0598
    192  SD       103.9940   57.2710   -7.3200 S.3   178  MET178     -0.1393
    193  CE       103.3940   55.7890   -6.6200 C.3   178  MET178      0.0692
@<TRIPOS>BOND
     1   180   178   ar
     2   179   178   ar
     3   178   177    1
     4   173   174    1
     5   173   172    1
     6   173   176    1
     7   177   176    1
     8   164   163    1
     9   174   175    2
    10   157   158    1
    11   181   182    1
    12   163   162    1
    13   158   159    1
    14   158   161    1
    15   162   161    1
    16   159   160    2
    17   159   165   am
    18   167   168    2
    19   167   166    1
    20   135   136    1
    21   137   136    1
    22   137   138    2
    23   165   166    1
    24   182   185    1
    25   182   183    1
    26   149   148    2
    27   148   147    1
    28   136   139    1
    29   170   169    1
    30   146   147    1
    31   166   169    1
    32   189   188    2
    33   186   183   am
    34   186   187    1
    35   183   184    2
    36   147   150    1
    37   191   190    1
    38   191   192    1
    39   169   171    1
    40   190   187    1
    41   139   140    1
    42   188   187    1
    43   140   141   ar
    44   140   142   ar
    45   150   151    1
    46   141   143   ar
    47   153   151   ar
    48   153   155   ar
    49    44    43    1
    50    24    23    1
    51   192   193    1
    52   142   144   ar
    53   151   152   ar
    54   143   145   ar
    55    43    42    1
    56   155   156   ar
    57     5     2    1
    58    37    38    1
    59    37    40    1
    60    37    36    1
    61    38    39    2
    62   144   145   ar
    63     1     2    1
    64    41    42    1
    65    41    40    1
    66   152   154   ar
    67   156   154   ar
    68    23    22    1
    69     2     3    1
    70   131   133   ar
    71   131   130   ar
    72   133   134   ar
    73    22    21    1
    74   130   129    1
    75   130   132   ar
    76   128   127    2
    77   134   132   ar
    78   129   126    1
    79     3     6   am
    80     3     4    2
    81    14    12   ar
    82    14    15   ar
    83     6     7    1
    84    12    11   ar
    85   127   126    1
    86    15    13   ar
    87   118   117    1
    88    21    20    1
    89   126   125    1
    90    35    34    1
    91   117   114    1
    92    11    13   ar
    93    11    10    1
    94    20    17    1
    95    97    99   ar
    96    97    96   ar
    97     7    10    1
    98     7     8    1
    99    99   101   ar
   100    95    96    1
   101    95    92    1
   102    34    31    1
   103    96    98   ar
   104   125   121   am
   105   116   115    2
   106    16    17    1
   107   115   114    1
   108   101   100   ar
   109   114   113    1
   110     8     9    2
   111    31    30    1
   112    31    32    1
   113    93    92    1
   114    93    94    2
   115    17    18    1
   116    19    18    2
   117    98   100   ar
   118    18    25   am
   119    92    91    1
   120    33    32    2
   121   122   121    2
   122   121   120    1
   123    90    89    1
   124    25    26    1
   125   113   104   am
   126    26    29    1
   127    26    27    1
   128    63    64   ar
   129    63    61   ar
   130    89    86    1
   131   123   120    1
   132   123   124    1
   133    64    62   ar
   134   120   119    1
   135    28    27    2
   136    75    74    2
   137   104   105    2
   138   104   103    1
   139    61    60   ar
   140    77    76    1
   141    76    78    1
   142    76    73    1
   143   102   103    1
   144    86    87    1
   145    86    85    1
   146    62    60   ar
   147   103   106    1
   148    74    73    1
   149    52    51    2
   150    60    59    1
   151    88    87    2
   152    73    72    1
   153   106   107    1
   154    85    81   am
   155    53    54    1
   156    53    50    1
   157    51    50    1
   158    51    55   am
   159    82    81    2
   160    59    56    1
   161    81    80    1
   162    56    55    1
   163    56    57    1
   164   107   108    1
   165    83    80    1
   166    83    84    1
   167    50    49    1
   168   108   109    1
   169    58    57    2
   170    57    65   am
   171    80    79    1
   172    49    47   am
   173   109   110    2
   174    65    66    1
   175    68    67    2
   176    66    67    1
   177    66    69    1
   178    47    48    2
   179    47    46    1
   180   110   111    1
   181   110   112    1
   182    45    46    1
   183    70    69    1
   184    69    71    1
