@<TRIPOS>MOLECULE
tmp/1ft9A00.pdb
 128 122 0 0 0
SMALL
GASTEIGER

@<TRIPOS>ATOM
      1  N        103.8820   35.7590    4.5470 N.3    43  VAL43      -0.1245
      2  CA       102.4750   35.9140    4.2330 C.3    43  VAL43       0.1561
      3  C        102.2730   36.2480    2.7610 C.2    43  VAL43       0.2260
      4  O        103.1110   36.8950    2.1420 O.2    43  VAL43      -0.2867
      5  CB       101.8640   37.0230    5.1140 C.3    43  VAL43       0.0252
      6  CG1      100.4710   37.3650    4.6470 C.3    43  VAL43       0.0019
      7  CG2      101.8430   36.5620    6.5720 C.3    43  VAL43       0.0019
      8  N         94.1120   35.5660    1.6190 N.3    72  MET72      -0.1230
      9  CA        95.4280   35.7150    2.2310 C.3    72  MET72       0.1702
     10  C         95.6950   34.4490    3.0320 C.2    72  MET72       0.2592
     11  O         94.7610   33.8210    3.5290 O.2    72  MET72      -0.2718
     12  CB        95.4570   36.9300    3.1780 C.3    72  MET72       0.0401
     13  CG        95.0540   38.2550    2.5190 C.3    72  MET72       0.0596
     14  SD        94.7200   39.6410    3.6770 S.3    72  MET72      -0.1393
     15  CE        96.0330   40.7690    3.2490 C.3    72  MET72       0.0692
     16  N         96.9670   34.0770    3.1390 N.am   73  PHE73      -0.1962
     17  CA        97.3830   32.9060    3.9040 C.3    73  PHE73       0.1771
     18  C         98.8750   33.0430    4.2130 C.2    73  PHE73       0.2619
     19  O         99.5810   33.8720    3.6140 O.2    73  PHE73      -0.2715
     20  CB        97.1380   31.6200    3.1190 C.3    73  PHE73       0.0574
     21  CG        96.9250   30.4040    3.9860 C.ar   73  PHE73      -0.0200
     22  CD1       95.8680   30.3590    4.9020 C.ar   73  PHE73      -0.0042
     23  CD2       97.7430   29.2820    3.8500 C.ar   73  PHE73      -0.0042
     24  CE1       95.6240   29.2060    5.6710 C.ar   73  PHE73      -0.0003
     25  CE2       97.5140   28.1180    4.6080 C.ar   73  PHE73      -0.0003
     26  CZ        96.4490   28.0810    5.5200 C.ar   73  PHE73      -0.0000
     27  N         99.3480   32.2220    5.1430 N.am   74  CYS74      -0.1968
     28  CA       100.7400   32.2550    5.5540 C.3    74  CYS74       0.1712
     29  C        101.4840   30.9960    5.1020 C.2    74  CYS74       0.2296
     30  O        100.9010   30.0900    4.4980 O.2    74  CYS74      -0.2864
     31  CB       100.8260   32.3430    7.0700 C.3    74  CYS74       0.0983
     32  SG       100.3750   30.7650    7.8150 S.3    74  CYS74      -0.0798
     33  N        103.2240   29.1680    7.4060 N.3    76  HIS76      -0.1226
     34  CA       103.5000   28.4190    8.6350 C.3    76  HIS76       0.1752
     35  C        102.3060   27.7680    9.3160 C.2    76  HIS76       0.2597
     36  O        102.3780   27.4530   10.5010 O.2    76  HIS76      -0.2718
     37  CB       104.1650   29.3390    9.6560 C.3    76  HIS76       0.0759
     38  CG       103.3000   30.4860   10.0830 C.ar   76  HIS76       0.0818
     39  ND1      103.5000   31.7770    9.6410 N.ar   76  HIS76      -0.2268
     40  CD2      102.2200   30.5330   10.9020 C.ar   76  HIS76       0.1154
     41  CE1      102.5860   32.5700   10.1710 C.ar   76  HIS76       0.1986
     42  NE2      101.7960   31.8410   10.9390 N.ar   76  HIS76      -0.2212
     43  N        101.2190   27.5560    8.5870 N.am   77  SER77      -0.1938
     44  CA       100.0270   26.9650    9.1840 C.3    77  SER77       0.2055
     45  C        100.1180   25.4720    9.4940 C.2    77  SER77       0.2643
     46  O         99.2390   24.9250   10.1620 O.2    77  SER77      -0.2714
     47  CB        98.8200   27.2020    8.2740 C.3    77  SER77       0.2130
     48  OG        98.8950   26.4100    7.0980 O.3    77  SER77      -0.2179
     49  N        101.1670   24.8080    9.0190 N.am   78  GLY78      -0.1954
     50  CA       101.2750   23.3770    9.2450 C.3    78  GLY78       0.1869
     51  C        100.3770   22.6660    8.2380 C.2    78  GLY78       0.2309
     52  O        100.1760   21.4470    8.2870 O.2    78  GLY78      -0.2863
     53  N        106.4230   38.1540    7.5630 N.3    94  ILE94      -0.1231
     54  CA       105.4920   38.4500    8.6450 C.3    94  ILE94       0.1692
     55  C        105.5500   39.8870    9.1580 C.2    94  ILE94       0.2591
     56  O        104.5210   40.5600    9.2720 O.2    94  ILE94      -0.2718
     57  CB       105.7280   37.5300    9.8440 C.3    94  ILE94       0.0266
     58  CG1      105.3330   36.0980    9.4880 C.3    94  ILE94       0.0019
     59  CG2      104.9410   38.0360   11.0390 C.3    94  ILE94       0.0020
     60  CD1      105.4100   35.1420   10.6580 C.3    94  ILE94       0.0001
     61  N        106.7500   40.3520    9.4850 N.am   95  ARG95      -0.1980
     62  CA       106.9040   41.7000   10.0050 C.3    95  ARG95       0.1597
     63  C        106.2730   42.7290    9.0910 C.2    95  ARG95       0.2287
     64  O        105.3910   43.4780    9.5030 O.2    95  ARG95      -0.2864
     65  CB       108.3880   42.0190   10.2200 C.3    95  ARG95       0.0334
     66  CG       109.0630   41.0590   11.1990 C.3    95  ARG95       0.0492
     67  CD       108.2210   40.9350   12.4640 C.3    95  ARG95       0.2205
     68  NE       108.2960   39.6080   13.0670 N.pl3  95  ARG95      -0.0865
     69  CZ       107.3740   39.1150   13.8890 C.cat  95  ARG95       0.5346
     70  NH1      106.3050   39.8400   14.2040 N.pl3  95  ARG95       0.1354
     71  NH2      107.5190   37.8990   14.3980 N.pl3  95  ARG95       0.1354
     72  N        104.1050   42.4920    6.8750 N.3    97  PHE97      -0.1227
     73  CA       102.6590   42.3460    6.8630 C.3    97  PHE97       0.1736
     74  C        102.0410   42.9300    8.1260 C.2    97  PHE97       0.2595
     75  O        101.0590   43.6720    8.0710 O.2    97  PHE97      -0.2718
     76  CB       102.2750   40.8710    6.7400 C.3    97  PHE97       0.0547
     77  CG       100.8450   40.6570    6.3520 C.ar   97  PHE97      -0.0202
     78  CD1      100.4010   41.0040    5.0790 C.ar   97  PHE97      -0.0042
     79  CD2       99.9340   40.1400    7.2630 C.ar   97  PHE97      -0.0042
     80  CE1       99.0700   40.8440    4.7180 C.ar   97  PHE97      -0.0003
     81  CE2       98.6040   39.9760    6.9130 C.ar   97  PHE97      -0.0003
     82  CZ        98.1690   40.3300    5.6350 C.ar   97  PHE97      -0.0000
     83  N        102.6220   42.5960    9.2690 N.am   98  GLU98      -0.1979
     84  CA       102.1100   43.0930   10.5330 C.3    98  GLU98       0.1602
     85  C        102.1290   44.6150   10.5490 C.2    98  GLU98       0.2287
     86  O        101.1770   45.2610   11.0040 O.2    98  GLU98      -0.2864
     87  CB       102.9430   42.5330   11.6840 C.3    98  GLU98       0.0415
     88  CG       102.4680   42.9620   13.0570 C.3    98  GLU98       0.1163
     89  CD       102.8710   41.9820   14.1310 C.2    98  GLU98       0.3649
     90  OE1      104.0580   41.5830   14.1490 O.co2  98  GLU98      -0.2457
     91  OE2      102.0020   41.6150   14.9550 O.co2  98  GLU98      -0.2457
     92  N         99.3920   45.9060    8.4280 N.3   101  LEU101     -0.1245
     93  CA        98.0990   45.6940    9.0850 C.3   101  LEU101      0.1561
     94  C         97.8140   46.7390   10.1420 C.2   101  LEU101      0.2260
     95  O         96.6920   47.2360   10.2560 O.2   101  LEU101     -0.2867
     96  CB        98.0240   44.3130    9.7280 C.3   101  LEU101      0.0270
     97  CG        97.8900   43.1510    8.7530 C.3   101  LEU101      0.0019
     98  CD1       97.8200   41.8730    9.5310 C.3   101  LEU101      0.0001
     99  CD2       96.6440   43.3230    7.9070 C.3   101  LEU101      0.0001
    100  N         92.4740   38.4660    7.2340 N.3   111  LEU111     -0.1245
    101  CA        93.1130   37.4590    8.0810 C.3   111  LEU111      0.1561
    102  C         92.0720   36.7850    8.9680 C.2   111  LEU111      0.2260
    103  O         92.0590   35.5560    9.1190 O.2   111  LEU111     -0.2867
    104  CB        94.1890   38.1310    8.9400 C.3   111  LEU111      0.0270
    105  CG        94.8170   37.3560   10.0930 C.3   111  LEU111      0.0019
    106  CD1       95.4230   36.0390    9.5890 C.3   111  LEU111      0.0001
    107  CD2       95.8790   38.2420   10.7410 C.3   111  LEU111      0.0001
    108  N         89.9470   34.3750    6.7810 N.3   114  ILE114     -0.1231
    109  CA        90.5810   33.1390    6.3460 C.3   114  ILE114      0.1692
    110  C         90.8500   32.2050    7.5110 C.2   114  ILE114      0.2591
    111  O         90.9520   30.9920    7.3300 O.2   114  ILE114     -0.2718
    112  CB        91.9140   33.3900    5.6020 C.3   114  ILE114      0.0266
    113  CG1       92.2290   32.1930    4.7040 C.3   114  ILE114      0.0019
    114  CG2       93.0640   33.5690    6.5920 C.3   114  ILE114      0.0020
    115  CD1       91.1810   31.9720    3.6010 C.3   114  ILE114      0.0001
    116  N         90.9950   32.7640    8.7070 N.am  115  LEU115     -0.1980
    117  CA        91.2370   31.9240    9.8690 C.3   115  LEU115      0.1596
    118  C         89.9260   31.2000   10.1580 C.2   115  LEU115      0.2287
    119  O         89.9230   30.0340   10.5520 O.2   115  LEU115     -0.2864
    120  CB        91.6870   32.7730   11.0670 C.3   115  LEU115      0.0297
    121  CG        93.1920   33.0790   11.0540 C.3   115  LEU115      0.0022
    122  CD1       93.5440   34.1420   12.0990 C.3   115  LEU115      0.0001
    123  CD2       93.9640   31.7830   11.3040 C.3   115  LEU115      0.0001
    124  N         89.4430   28.4710    7.5600 N.3   118  ALA118     -0.1245
    125  CA        90.3060   27.3580    7.9220 C.3   118  ALA118      0.1562
    126  C         89.7200   26.6070    9.1020 C.2   118  ALA118      0.2260
    127  O         89.7070   25.3810    9.1170 O.2   118  ALA118     -0.2867
    128  CB        91.7030   27.8650    8.2740 C.3   118  ALA118      0.0290
@<TRIPOS>BOND
     1     8     9    1
     2     4     3    2
     3     9    10    1
     4     9    12    1
     5    13    12    1
     6    13    14    1
     7     3     2    1
     8    10    16   am
     9    10    11    2
    10    20    17    1
    11    20    21    1
    12    16    17    1
    13    15    14    1
    14   115   113    1
    15    19    18    2
    16    23    21   ar
    17    23    25   ar
    18    17    18    1
    19    21    22   ar
    20    18    27   am
    21     2     1    1
    22     2     5    1
    23    30    29    2
    24    25    26   ar
    25     6     5    1
    26   113   112    1
    27    80    78   ar
    28    80    82   ar
    29    22    24   ar
    30    78    77   ar
    31    29    28    1
    32     5     7    1
    33    27    28    1
    34    26    24   ar
    35    28    31    1
    36   112   109    1
    37   112   114    1
    38    82    81   ar
    39   109   108    1
    40   109   110    1
    41    77    76    1
    42    77    79   ar
    43    76    73    1
    44    73    72    1
    45    73    74    1
    46    81    79   ar
    47    31    32    1
    48    48    47    1
    49   100   101    1
    50   111   110    2
    51    33    34    1
    52   110   116   am
    53   124   125    1
    54    53    54    1
    55    99    97    1
    56   125   128    1
    57   125   126    1
    58    75    74    2
    59   101   104    1
    60   101   102    1
    61    74    83   am
    62    51    52    2
    63    51    50    1
    64    47    44    1
    65    92    93    1
    66    43    44    1
    67    43    35   am
    68    34    35    1
    69    34    37    1
    70    54    55    1
    71    54    57    1
    72   116   117    1
    73    97    98    1
    74    97    96    1
    75   104   105    1
    76   102   103    2
    77    49    50    1
    78    49    45   am
    79    93    96    1
    80    93    94    1
    81    63    64    2
    82    63    62    1
    83   126   127    2
    84    55    56    2
    85    55    61   am
    86    44    45    1
    87    83    84    1
    88    35    36    2
    89    61    62    1
    90    58    57    1
    91    58    60    1
    92    45    46    2
    93   106   105    1
    94    39    38   ar
    95    39    41   ar
    96    37    38    1
    97    57    59    1
    98   117   118    1
    99   117   120    1
   100    62    65    1
   101    38    40   ar
   102   105   107    1
   103    94    95    2
   104   118   119    2
   105    41    42   ar
   106    65    66    1
   107    84    85    1
   108    84    87    1
   109    85    86    2
   110    40    42   ar
   111   121   120    1
   112   121   123    1
   113   121   122    1
   114    66    67    1
   115    87    88    1
   116    67    68    1
   117    88    89    1
   118    68    69    2
   119    69    70    1
   120    69    71    1
   121    89    90   ar
   122    89    91   ar
