@<TRIPOS>MOLECULE
tmp/1fthB00.pdb
 101 99 0 0 0
SMALL
GASTEIGER

@<TRIPOS>ATOM
      1  N          3.9480    5.3810   28.7160 N.3    48  GLU48      -0.1231
      2  CA         5.0810    5.4540   27.7970 C.3    48  GLU48       0.1699
      3  C          6.4130    5.2810   28.5210 C.2    48  GLU48       0.2592
      4  O          7.3490    4.6920   27.9700 O.2    48  GLU48      -0.2718
      5  CB         5.0620    6.7950   27.0510 C.3    48  GLU48       0.0402
      6  CG         6.2680    7.0780   26.1470 C.3    48  GLU48       0.1161
      7  CD         6.4280    6.0880   24.9920 C.2    48  GLU48       0.3649
      8  OE1        5.4050    5.6860   24.3940 O.co2  48  GLU48      -0.2457
      9  OE2        7.5850    5.7300   24.6700 O.co2  48  GLU48      -0.2457
     10  N          6.4990    5.7950   29.7470 N.am   49  TYR49      -0.1976
     11  CA         7.7270    5.6900   30.5380 C.3    49  TYR49       0.1639
     12  C          8.0020    4.2210   30.8790 C.2    49  TYR49       0.2290
     13  O          9.1010    3.7180   30.6370 O.2    49  TYR49      -0.2864
     14  CB         7.6080    6.5450   31.8170 C.3    49  TYR49       0.0560
     15  CG         8.8460    6.5570   32.7070 C.ar   49  TYR49      -0.0198
     16  CD1        9.0090    5.6140   33.7220 C.ar   49  TYR49      -0.0009
     17  CD2        9.8630    7.4930   32.5140 C.ar   49  TYR49      -0.0009
     18  CE1       10.1540    5.5980   34.5230 C.ar   49  TYR49       0.0417
     19  CE2       11.0170    7.4860   33.3100 C.ar   49  TYR49       0.0417
     20  CZ        11.1520    6.5340   34.3140 C.ar   49  TYR49       0.1957
     21  OH        12.2810    6.5180   35.1070 O.3    49  TYR49      -0.2866
     22  N          9.0100    2.0860   27.8050 N.3    52  GLY52      -0.1210
     23  CA        10.3670    2.3840   27.3670 C.3    52  GLY52       0.1956
     24  C         11.4560    1.7520   28.2240 C.2    52  GLY52       0.2611
     25  O         12.5220    1.3530   27.7110 O.2    52  GLY52      -0.2717
     26  N         11.2200    1.6740   29.5320 N.am   53  ARG53      -0.1979
     27  CA        12.2040    1.0680   30.4300 C.3    53  ARG53       0.1597
     28  C         12.2790   -0.4540   30.1860 C.2    53  ARG53       0.2287
     29  O         13.3550   -1.0610   30.2710 O.2    53  ARG53      -0.2864
     30  CB        11.8450    1.3770   31.8930 C.3    53  ARG53       0.0334
     31  CG        12.6060    2.5670   32.5050 C.3    53  ARG53       0.0492
     32  CD        12.5270    3.8440   31.6660 C.3    53  ARG53       0.2205
     33  NE        13.4240    4.8760   32.1860 N.pl3  53  ARG53      -0.0865
     34  CZ        13.6950    6.0290   31.5740 C.cat  53  ARG53       0.5346
     35  NH1       13.1340    6.3220   30.4060 N.pl3  53  ARG53       0.1354
     36  NH2       14.5490    6.8840   32.1220 N.pl3  53  ARG53       0.1354
     37  N         17.1810    9.6760   33.1690 N.3    80  ASN80      -0.1240
     38  CA        17.3090   10.7280   32.1470 C.3    80  ASN80       0.1653
     39  C         18.2000   11.8460   32.6890 C.2    80  ASN80       0.2266
     40  O         18.0010   12.2960   33.8130 O.2    80  ASN80      -0.2867
     41  CB        15.9300   11.3030   31.7920 C.3    80  ASN80       0.1155
     42  CG        15.1510   10.4230   30.8300 C.2    80  ASN80       0.2627
     43  OD1       15.4490   10.3700   29.6350 O.2    80  ASN80      -0.2716
     44  ND2       14.1500    9.7230   31.3480 N.am   80  ASN80      -0.0877
     45  N         19.5900   16.9950   30.2860 N.3    83  ARG83      -0.1231
     46  CA        19.2780   17.4270   28.9250 C.3    83  ARG83       0.1694
     47  C         18.1520   16.5720   28.3490 C.2    83  ARG83       0.2593
     48  O         17.5860   16.8950   27.3030 O.2    83  ARG83      -0.2718
     49  CB        20.5050   17.3310   28.0140 C.3    83  ARG83       0.0321
     50  CG        21.5640   18.3780   28.2750 C.3    83  ARG83       0.0489
     51  CD        22.4670   18.5480   27.0670 C.3    83  ARG83       0.2205
     52  NE        23.5390   19.5070   27.3140 N.pl3  83  ARG83      -0.0865
     53  CZ        24.6060   19.2540   28.0620 C.cat  83  ARG83       0.5346
     54  NH1       24.7490   18.0670   28.6360 N.pl3  83  ARG83       0.1354
     55  NH2       25.5290   20.1870   28.2370 N.pl3  83  ARG83       0.1354
     56  N         17.8380   15.4750   29.0330 N.am   84  GLY84      -0.1942
     57  CA        16.7720   14.5980   28.5830 C.3    84  GLY84       0.2014
     58  C         17.2100   13.3060   27.9180 C.2    84  GLY84       0.2639
     59  O         16.3600   12.4960   27.5330 O.2    84  GLY84      -0.2714
     60  N         18.5180   13.1020   27.7660 N.am   85  ALA85      -0.1963
     61  CA        19.0120   11.8730   27.1390 C.3    85  ALA85       0.1713
     62  C         18.9960   10.7090   28.1370 C.2    85  ALA85       0.2458
     63  O         19.3770   10.8710   29.2990 O.2    85  ALA85      -0.2730
     64  CB        20.4340   12.0790   26.5930 C.3    85  ALA85       0.0333
     65  N         18.5370    9.5210   27.6960 N.am   86  PRO86      -0.2727
     66  CA        18.4660    8.3200   28.5430 C.3    86  PRO86       0.1402
     67  C         19.8220    7.6070   28.6440 C.2    86  PRO86       0.2269
     68  O         20.5550    7.5660   27.6640 O.2    86  PRO86      -0.2865
     69  CB        17.4180    7.4690   27.8260 C.3    86  PRO86       0.0296
     70  CG        17.7080    7.7610   26.3870 C.3    86  PRO86       0.0237
     71  CD        17.8890    9.2790   26.3920 C.3    86  PRO86       0.0939
     72  N         19.7580    4.3280   22.8550 N.3   100  SER100     -0.1202
     73  CA        18.8000    5.2790   22.2380 C.3   100  SER100      0.2020
     74  C         17.3630    4.6870   22.2170 C.2   100  SER100      0.2619
     75  O         17.1990    3.4790   22.0050 O.2   100  SER100     -0.2717
     76  CB        19.2220    5.6470   20.8070 C.3   100  SER100      0.2103
     77  OG        18.4170    6.6970   20.2800 O.3   100  SER100     -0.2182
     78  N         16.3490    5.5380   22.4390 N.am  101  ILE101     -0.1965
     79  CA        14.9100    5.1510   22.4760 C.3   101  ILE101      0.1727
     80  C         14.0340    6.0460   21.5550 C.2   101  ILE101      0.2617
     81  O         14.3070    7.2380   21.4210 O.2   101  ILE101     -0.2715
     82  CB        14.3430    5.2870   23.9420 C.3   101  ILE101      0.0290
     83  CG1       15.1690    4.4330   24.9130 C.3   101  ILE101      0.0022
     84  CG2       12.8540    4.8850   23.9850 C.3   101  ILE101      0.0023
     85  CD1       14.8020    4.6280   26.4100 C.3   101  ILE101      0.0001
     86  N         12.9880    5.4830   20.9340 N.am  102  SER102     -0.1936
     87  CA        12.0700    6.2620   20.0740 C.3   102  SER102      0.2055
     88  C         10.6570    5.6490   20.0730 C.2   102  SER102      0.2643
     89  O         10.5070    4.4340   20.2410 O.2   102  SER102     -0.2714
     90  CB        12.6020    6.3320   18.6290 C.3   102  SER102      0.2130
     91  OG        11.8510    7.2470   17.8270 O.3   102  SER102     -0.2179
     92  N          9.6170    6.4630   19.8800 N.am  103  HIS103     -0.1973
     93  CA         8.2620    5.8990   19.8780 C.3   103  HIS103      0.1656
     94  C          7.2450    6.5050   18.8990 C.2   103  HIS103      0.2291
     95  O          7.4790    7.5630   18.3120 O.2   103  HIS103     -0.2864
     96  CB         7.6590    5.9640   21.2860 C.3   103  HIS103      0.0771
     97  CG         7.3650    7.3550   21.7590 C.ar  103  HIS103      0.0820
     98  ND1        8.2910    8.1300   22.4220 N.ar  103  HIS103     -0.2267
     99  CD2        6.2510    8.1180   21.6440 C.ar  103  HIS103      0.1154
    100  CE1        7.7620    9.3100   22.6960 C.ar  103  HIS103      0.1986
    101  NE2        6.5240    9.3280   22.2350 N.ar  103  HIS103     -0.2212
@<TRIPOS>BOND
     1    91    90    1
     2    95    94    2
     3    90    87    1
     4    94    93    1
     5    93    92    1
     6    93    96    1
     7    92    88   am
     8    88    87    1
     9    88    89    2
    10    87    86    1
    11    77    76    1
    12    76    73    1
    13    86    80   am
    14    96    97    1
    15    81    80    2
    16    80    79    1
    17    99    97   ar
    18    99   101   ar
    19    97    98   ar
    20    75    74    2
    21    74    73    1
    22    74    78   am
    23   101   100   ar
    24    73    72    1
    25    98   100   ar
    26    78    79    1
    27    79    82    1
    28    82    84    1
    29    82    83    1
    30     8     7   ar
    31     9     7   ar
    32    83    85    1
    33     7     6    1
    34     6     5    1
    35    70    71    1
    36    70    69    1
    37    71    65    1
    38    64    61    1
    39     5     2    1
    40    51    52    1
    41    51    50    1
    42    61    60    1
    43    61    62    1
    44    48    47    2
    45    52    53    2
    46    23    22    1
    47    23    24    1
    48    59    58    2
    49    68    67    2
    50    65    62   am
    51    65    66    1
    52    25    24    2
    53    60    58   am
    54     2     3    1
    55     2     1    1
    56    69    66    1
    57    58    57    1
    58     4     3    2
    59    49    50    1
    60    49    46    1
    61    53    55    1
    62    53    54    1
    63    62    63    2
    64    24    26   am
    65    47    46    1
    66    47    56   am
    67     3    10   am
    68    66    67    1
    69    57    56    1
    70    46    45    1
    71    26    27    1
    72    43    42    2
    73    10    11    1
    74    28    29    2
    75    28    27    1
    76    35    34    1
    77    27    30    1
    78    11    12    1
    79    11    14    1
    80    13    12    2
    81    42    44   am
    82    42    41    1
    83    34    36    1
    84    34    33    2
    85    32    33    1
    86    32    31    1
    87    41    38    1
    88    14    15    1
    89    30    31    1
    90    38    39    1
    91    38    37    1
    92    17    15   ar
    93    17    19   ar
    94    39    40    2
    95    15    16   ar
    96    19    20   ar
    97    16    18   ar
    98    20    18   ar
    99    20    21    1
