@<TRIPOS>MOLECULE
tmp/1ftqA00.pdb
 156 148 0 0 0
SMALL
GASTEIGER

@<TRIPOS>ATOM
      1  N         33.0860   20.1160   39.2230 N.3    76  GLU76      -0.1245
      2  CA        31.7820   20.6220   38.8330 C.3    76  GLU76       0.1567
      3  C         30.7690   19.5360   38.5470 C.2    76  GLU76       0.2260
      4  O         31.0830   18.5400   37.8950 O.2    76  GLU76      -0.2867
      5  CB        31.9320   21.5160   37.5960 C.3    76  GLU76       0.0388
      6  CG        32.2210   22.9670   37.9290 C.3    76  GLU76       0.1160
      7  CD        32.5590   23.8070   36.7220 C.2    76  GLU76       0.3649
      8  OE1       33.6080   24.4850   36.7640 O.co2  76  GLU76      -0.2457
      9  OE2       31.7960   23.7910   35.7310 O.co2  76  GLU76      -0.2457
     10  N         29.4160   25.4830   35.9840 N.3   121  ASN121     -0.1225
     11  CA        29.4210   26.7270   35.2000 C.3   121  ASN121      0.1785
     12  C         28.6870   26.5890   33.8840 C.2   121  ASN121      0.2598
     13  O         27.9480   27.4790   33.4860 O.2   121  ASN121     -0.2718
     14  CB        30.8560   27.1690   34.8960 C.3   121  ASN121      0.1169
     15  CG        31.4930   27.9310   36.0400 C.2   121  ASN121      0.2627
     16  OD1       31.2070   29.1080   36.2660 O.2   121  ASN121     -0.2716
     17  ND2       32.3620   27.2560   36.7740 N.am  121  ASN121     -0.0877
     18  N         28.8920   25.4630   33.2140 N.am  122  GLY122     -0.1942
     19  CA        28.2490   25.2540   31.9410 C.3   122  GLY122      0.2014
     20  C         28.4030   23.8410   31.4510 C.2   122  GLY122      0.2639
     21  O         27.9980   22.9010   32.1330 O.2   122  GLY122     -0.2714
     22  N         29.0020   23.7040   30.2740 N.am  123  GLY123     -0.1939
     23  CA        29.1840   22.4080   29.6400 C.3   123  GLY123      0.2014
     24  C         29.9310   21.3460   30.4060 C.2   123  GLY123      0.2638
     25  O         29.4820   20.2070   30.4830 O.2   123  GLY123     -0.2714
     26  N         31.0680   21.7240   30.9700 N.am  124  LEU124     -0.1977
     27  CA        31.8960   20.7960   31.7220 C.3   124  LEU124      0.1596
     28  C         31.1190   20.2280   32.9150 C.2   124  LEU124      0.2287
     29  O         31.0970   19.0150   33.1480 O.2   124  LEU124     -0.2864
     30  CB        33.1780   21.5200   32.1570 C.3   124  LEU124      0.0297
     31  CG        34.2060   20.7920   33.0170 C.3   124  LEU124      0.0022
     32  CD1       35.6070   21.3080   32.7630 C.3   124  LEU124      0.0001
     33  CD2       33.8370   21.0240   34.4620 C.3   124  LEU124      0.0001
     34  N         28.2080   18.0020   31.6980 N.3   127  LEU127     -0.1245
     35  CA        28.6520   16.7310   31.1210 C.3   127  LEU127      0.1561
     36  C         28.7480   15.7200   32.2520 C.2   127  LEU127      0.2260
     37  O         28.2380   14.6000   32.1500 O.2   127  LEU127     -0.2867
     38  CB        30.0110   16.8730   30.4260 C.3   127  LEU127      0.0270
     39  CG        30.4320   15.6330   29.6200 C.3   127  LEU127      0.0019
     40  CD1       29.6900   15.5980   28.2860 C.3   127  LEU127      0.0001
     41  CD2       31.9500   15.6380   29.4070 C.3   127  LEU127      0.0001
     42  N         34.2500   30.1030   33.2020 N.3   271  ASP271     -0.1225
     43  CA        34.0030   29.0930   32.1910 C.3   271  ASP271      0.1805
     44  C         35.1330   29.2400   31.1750 C.2   271  ASP271      0.2597
     45  O         35.3390   30.3100   30.6190 O.2   271  ASP271     -0.2718
     46  CB        32.6420   29.3390   31.5380 C.3   271  ASP271      0.1424
     47  CG        32.2320   28.2200   30.6050 C.2   271  ASP271      0.3668
     48  OD1       31.5200   27.2970   31.0630 O.co2 271  ASP271     -0.2456
     49  OD2       32.6270   28.2580   29.4140 O.co2 271  ASP271     -0.2456
     50  N         35.8960   28.1820   30.9530 N.am  272  ASN272     -0.1974
     51  CA        36.9770   28.2640   29.9810 C.3   272  ASN272      0.1688
     52  C         37.9550   29.4110   30.2450 C.2   272  ASN272      0.2292
     53  O         38.3720   30.1020   29.3120 O.2   272  ASN272     -0.2864
     54  CB        36.4060   28.4220   28.5700 C.3   272  ASN272      0.1181
     55  CG        36.1650   27.1000   27.8870 C.2   272  ASN272      0.2629
     56  OD1       37.1070   26.4270   27.4680 O.2   272  ASN272     -0.2716
     57  ND2       34.8970   26.7180   27.7660 N.am  272  ASN272     -0.0877
     58  N         39.0330   17.1190   33.2480 N.3   327  ASP327     -0.1239
     59  CA        39.8890   18.2770   32.9820 C.3   327  ASP327      0.1674
     60  C         41.0670   18.1860   33.9420 C.2   327  ASP327      0.2266
     61  O         41.2650   17.1390   34.5550 O.2   327  ASP327     -0.2867
     62  CB        39.1300   19.5920   33.1770 C.3   327  ASP327      0.1410
     63  CG        39.6790   20.7110   32.3060 C.2   327  ASP327      0.3668
     64  OD1       38.9190   21.6440   31.9710 O.co2 327  ASP327     -0.2456
     65  OD2       40.8750   20.6670   31.9580 O.co2 327  ASP327     -0.2456
     66  N         39.2210   19.3900   27.8090 N.3   365  HIS365     -0.1226
     67  CA        38.0120   20.0440   27.3350 C.3   365  HIS365      0.1752
     68  C         38.1930   21.3610   26.5920 C.2   365  HIS365      0.2596
     69  O         37.1980   21.9820   26.2360 O.2   365  HIS365     -0.2718
     70  CB        37.0340   20.2650   28.4970 C.3   365  HIS365      0.0759
     71  CG        36.6070   19.0120   29.1860 C.ar  365  HIS365      0.0818
     72  ND1       35.4690   18.3130   28.8400 N.ar  365  HIS365     -0.2268
     73  CD2       37.1500   18.3430   30.2360 C.ar  365  HIS365      0.1154
     74  CE1       35.3240   17.2800   29.6470 C.ar  365  HIS365      0.1986
     75  NE2       36.3270   17.2730   30.5010 N.ar  365  HIS365     -0.2212
     76  N         39.4220   21.8110   26.3610 N.am  366  THR366     -0.1953
     77  CA        39.5980   23.0570   25.6270 C.3   366  THR366      0.1897
     78  C         41.0120   23.2410   25.1430 C.2   366  THR366      0.2313
     79  O         41.9440   22.6820   25.7110 O.2   366  THR366     -0.2863
     80  CB        39.2140   24.3000   26.4720 C.3   366  THR366      0.1794
     81  OG1       39.4300   25.5000   25.7050 O.3   366  THR366     -0.2208
     82  CG2       40.0460   24.3580   27.7370 C.3   366  THR366      0.0378
     83  N         36.9990   15.5650   23.4290 N.3   443  VAL443     -0.1245
     84  CA        35.5500   15.4040   23.5690 C.3   443  VAL443      0.1561
     85  C         34.7470   15.4640   22.2610 C.2   443  VAL443      0.2260
     86  O         33.5110   15.4730   22.2640 O.2   443  VAL443     -0.2867
     87  CB        35.0160   16.4510   24.5780 C.3   443  VAL443      0.0252
     88  CG1       35.4080   16.0400   26.0000 C.3   443  VAL443      0.0019
     89  CG2       35.5990   17.8360   24.2540 C.3   443  VAL443      0.0019
     90  N         31.3580   13.6810   23.1360 N.3   472  ASN472     -0.1240
     91  CA        30.3910   13.9470   24.1880 C.3   472  ASN472      0.1653
     92  C         28.9980   13.5070   23.7700 C.2   472  ASN472      0.2266
     93  O         28.7550   13.1860   22.6080 O.2   472  ASN472     -0.2867
     94  CB        30.3690   15.4410   24.5160 C.3   472  ASN472      0.1155
     95  CG        31.5580   15.8810   25.3600 C.2   472  ASN472      0.2627
     96  OD1       31.7940   17.0740   25.5210 O.2   472  ASN472     -0.2716
     97  ND2       32.3060   14.9260   25.9000 N.am  472  ASN472     -0.0877
     98  N         34.6250   33.6670   22.0560 N.3   561  TYR561     -0.1227
     99  CA        34.7400   32.5690   21.1040 C.3   561  TYR561      0.1736
    100  C         33.3890   31.9850   20.6890 C.2   561  TYR561      0.2595
    101  O         33.2750   31.3970   19.6080 O.2   561  TYR561     -0.2718
    102  CB        35.6840   31.4810   21.6470 C.3   561  TYR561      0.0548
    103  CG        35.0770   30.3450   22.4650 C.ar  561  TYR561     -0.0200
    104  CD1       34.5860   29.1970   21.8460 C.ar  561  TYR561     -0.0009
    105  CD2       35.0500   30.3980   23.8570 C.ar  561  TYR561     -0.0009
    106  CE1       34.0860   28.1430   22.5790 C.ar  561  TYR561      0.0417
    107  CE2       34.5500   29.3480   24.6040 C.ar  561  TYR561      0.0417
    108  CZ        34.0670   28.2220   23.9600 C.ar  561  TYR561      0.1957
    109  OH        33.5460   27.1730   24.6850 O.3   561  TYR561     -0.2866
    110  N         32.3610   32.1660   21.5180 N.am  562  LYS562     -0.1980
    111  CA        31.0260   31.6550   21.1950 C.3   562  LYS562      0.1596
    112  C         30.3670   32.5750   20.1650 C.2   562  LYS562      0.2287
    113  O         29.3850   32.1950   19.5210 O.2   562  LYS562     -0.2864
    114  CB        30.1530   31.5650   22.4480 C.3   562  LYS562      0.0298
    115  CG        30.7930   30.8670   23.6470 C.3   562  LYS562      0.0038
    116  CD        30.3670   29.4170   23.7550 C.3   562  LYS562      0.0206
    117  CE        30.3520   28.9540   25.1960 C.3   562  LYS562      0.1093
    118  NZ        30.4580   27.4680   25.2730 N.3   562  LYS562     -0.1314
    119  N         37.5610   26.3540   18.0620 N.3   659  THR659     -0.1203
    120  CA        37.5500   26.8550   19.4360 C.3   659  THR659      0.1994
    121  C         36.6060   26.1370   20.4240 C.2   659  THR659      0.2618
    122  O         36.9250   26.0260   21.6140 O.2   659  THR659     -0.2717
    123  CB        37.2590   28.3920   19.4670 C.3   659  THR659      0.1784
    124  OG1       35.8820   28.6370   19.1440 O.3   659  THR659     -0.2211
    125  CG2       38.1380   29.1210   18.4650 C.3   659  THR659      0.0376
    126  N         35.4610   25.6510   19.9490 N.am  660  GLU660     -0.1965
    127  CA        34.5010   24.9430   20.8160 C.3   660  GLU660      0.1733
    128  C         34.8550   23.4580   20.8070 C.2   660  GLU660      0.2616
    129  O         34.5820   22.7670   19.8360 O.2   660  GLU660     -0.2715
    130  CB        33.0760   25.1390   20.2820 C.3   660  GLU660      0.0429
    131  CG        31.9640   24.6310   21.1950 C.3   660  GLU660      0.1163
    132  CD        31.7960   25.4810   22.4500 C.2   660  GLU660      0.3649
    133  OE1       32.4680   25.1890   23.4690 O.co2 660  GLU660     -0.2457
    134  OE2       31.0040   26.4470   22.4250 O.co2 660  GLU660     -0.2457
    135  N         35.4550   22.9680   21.8850 N.am  661  ALA661     -0.1963
    136  CA        35.8830   21.5630   21.9660 C.3   661  ALA661      0.1728
    137  C         34.8770   20.5450   21.4460 C.2   661  ALA661      0.2617
    138  O         35.2330   19.6270   20.6900 O.2   661  ALA661     -0.2715
    139  CB        36.2580   21.2260   23.3990 C.3   661  ALA661      0.0334
    140  N         33.6320   20.6970   21.8800 N.am  662  SER662     -0.1936
    141  CA        32.5710   19.8080   21.4520 C.3   662  SER662      0.2055
    142  C         31.2360   20.5290   21.4880 C.2   662  SER662      0.2644
    143  O         30.5780   20.7180   20.4540 O.2   662  SER662     -0.2714
    144  CB        32.4970   18.5720   22.3570 C.3   662  SER662      0.2130
    145  OG        31.2740   17.8660   22.1560 O.3   662  SER662     -0.2179
    146  N         30.8620   20.9510   22.6890 N.am  663  GLY663     -0.1939
    147  CA        29.5890   21.6070   22.8780 C.3   663  GLY663      0.2014
    148  C         28.6070   20.4870   23.1430 C.2   663  GLY663      0.2639
    149  O         28.8350   19.3400   22.7220 O.2   663  GLY663     -0.2714
    150  N         27.5290   20.7930   23.8520 N.am  664  THR664     -0.1950
    151  CA        26.5160   19.7810   24.1360 C.3   664  THR664      0.1897
    152  C         25.1220   20.3670   23.9740 C.2   664  THR664      0.2313
    153  O         24.1410   19.6390   23.8310 O.2   664  THR664     -0.2863
    154  CB        26.6750   19.2240   25.5430 C.3   664  THR664      0.1794
    155  OG1       26.9480   20.3000   26.4440 O.3   664  THR664     -0.2208
    156  CG2       27.8160   18.2110   25.5810 C.3   664  THR664      0.0378
@<TRIPOS>BOND
     1   119   120    1
     2   125   123    1
     3   124   123    1
     4   120   123    1
     5   120   121    1
     6   113   112    2
     7   101   100    2
     8   129   128    2
     9   126   121   am
    10   126   127    1
    11   112   111    1
    12   130   127    1
    13   130   131    1
    14   121   122    2
    15   143   142    2
    16   100    99    1
    17   100   110   am
    18   138   137    2
    19   128   127    1
    20   128   135   am
    21    99   102    1
    22    99    98    1
    23   131   132    1
    24   111   110    1
    25   111   114    1
    26   137   140   am
    27   137   136    1
    28   141   142    1
    29   141   140    1
    30   141   144    1
    31   142   146   am
    32   102   103    1
    33   104   103   ar
    34   104   106   ar
    35   135   136    1
    36   136   139    1
    37   145   144    1
    38    85    86    2
    39    85    84    1
    40   134   132   ar
    41   114   115    1
    42   132   133   ar
    43   103   105   ar
    44   106   108   ar
    45    93    92    2
    46   146   147    1
    47   149   148    2
    48   147   148    1
    49    90    91    1
    50   148   150   am
    51    83    84    1
    52    84    87    1
    53   115   116    1
    54   116   117    1
    55    92    91    1
    56   153   152    2
    57   150   151    1
    58   105   107   ar
    59   108   107   ar
    60   108   109    1
    61   152   151    1
    62   151   154    1
    63    91    94    1
    64    89    87    1
    65    94    95    1
    66    87    88    1
    67    78    77    1
    68    78    79    2
    69   117   118    1
    70    95    96    2
    71    95    97   am
    72   154   156    1
    73   154   155    1
    74    77    76    1
    75    77    80    1
    76    81    80    1
    77    69    68    2
    78    76    68   am
    79    80    82    1
    80    68    67    1
    81    67    66    1
    82    67    70    1
    83    56    55    2
    84    57    55   am
    85    55    54    1
    86    40    39    1
    87    70    71    1
    88    54    51    1
    89    72    71   ar
    90    72    74   ar
    91    71    73   ar
    92    53    52    2
    93    41    39    1
    94    49    47   ar
    95    39    38    1
    96    23    22    1
    97    23    24    1
    98    74    75   ar
    99    51    52    1
   100    51    50    1
   101    73    75   ar
   102    22    20   am
   103    24    25    2
   104    24    26   am
   105    38    35    1
   106    47    48   ar
   107    47    46    1
   108    45    44    2
   109    50    44   am
   110    26    27    1
   111    35    34    1
   112    35    36    1
   113    44    43    1
   114    20    19    1
   115    20    21    2
   116    46    43    1
   117    27    30    1
   118    27    28    1
   119    19    18    1
   120    65    63   ar
   121    64    63   ar
   122    37    36    2
   123    30    31    1
   124    43    42    1
   125    63    62    1
   126    32    31    1
   127    28    29    2
   128    59    62    1
   129    59    58    1
   130    59    60    1
   131    31    33    1
   132    18    12   am
   133    13    12    2
   134    12    11    1
   135    60    61    2
   136    14    11    1
   137    14    15    1
   138    11    10    1
   139     9     7   ar
   140    15    16    2
   141    15    17   am
   142     7     8   ar
   143     7     6    1
   144     5     6    1
   145     5     2    1
   146     4     3    2
   147     3     2    1
   148     2     1    1
