@<TRIPOS>MOLECULE
tmp/1ftwA00.pdb
 143 135 0 0 0
SMALL
GASTEIGER

@<TRIPOS>ATOM
      1  N         29.3610   25.5990   36.0240 N.3   121  ASN121     -0.1240
      2  CA        29.3330   26.8200   35.2260 C.3   121  ASN121      0.1653
      3  C         28.5550   26.6440   33.9470 C.2   121  ASN121      0.2266
      4  O         27.7490   27.5000   33.5870 O.2   121  ASN121     -0.2867
      5  CB        30.7510   27.2650   34.8790 C.3   121  ASN121      0.1155
      6  CG        31.3920   28.0330   36.0010 C.2   121  ASN121      0.2627
      7  OD1       31.1530   29.2230   36.1670 O.2   121  ASN121     -0.2716
      8  ND2       32.1970   27.3470   36.7990 N.am  121  ASN121     -0.0877
      9  N         28.9150   23.7950   30.3280 N.3   123  GLY123     -0.1210
     10  CA        29.1380   22.5240   29.6600 C.3   123  GLY123      0.1956
     11  C         29.8880   21.4530   30.4090 C.2   123  GLY123      0.2611
     12  O         29.4490   20.3000   30.4610 O.2   123  GLY123     -0.2717
     13  N         31.0230   21.8280   30.9850 N.am  124  LEU124     -0.1979
     14  CA        31.8400   20.8710   31.7110 C.3   124  LEU124      0.1596
     15  C         31.0610   20.2930   32.9010 C.2   124  LEU124      0.2287
     16  O         31.0360   19.0750   33.1160 O.2   124  LEU124     -0.2864
     17  CB        33.1410   21.5490   32.1650 C.3   124  LEU124      0.0297
     18  CG        34.1550   20.7510   32.9790 C.3   124  LEU124      0.0022
     19  CD1       35.5760   21.2510   32.7450 C.3   124  LEU124      0.0001
     20  CD2       33.7930   20.9100   34.4340 C.3   124  LEU124      0.0001
     21  N         28.1660   18.0620   31.7150 N.3   127  LEU127     -0.1245
     22  CA        28.5860   16.7920   31.1370 C.3   127  LEU127      0.1561
     23  C         28.6810   15.7810   32.2630 C.2   127  LEU127      0.2260
     24  O         28.1740   14.6490   32.1610 O.2   127  LEU127     -0.2867
     25  CB        29.9360   16.9240   30.4370 C.3   127  LEU127      0.0270
     26  CG        30.3360   15.6710   29.6520 C.3   127  LEU127      0.0019
     27  CD1       29.5670   15.6000   28.3350 C.3   127  LEU127      0.0001
     28  CD2       31.8340   15.6880   29.4070 C.3   127  LEU127      0.0001
     29  N         34.2820   30.1420   33.1760 N.3   271  ASP271     -0.1225
     30  CA        34.0650   29.0910   32.2170 C.3   271  ASP271      0.1805
     31  C         35.1680   29.2940   31.1980 C.2   271  ASP271      0.2597
     32  O         35.3730   30.3980   30.6990 O.2   271  ASP271     -0.2718
     33  CB        32.6780   29.2140   31.5810 C.3   271  ASP271      0.1424
     34  CG        32.3480   28.0330   30.6800 C.2   271  ASP271      0.3668
     35  OD1       31.5750   27.1500   31.1180 O.co2 271  ASP271     -0.2456
     36  OD2       32.8760   27.9960   29.5350 O.co2 271  ASP271     -0.2456
     37  N         35.9270   28.2420   30.9300 N.am  272  ASN272     -0.1974
     38  CA        37.0050   28.3400   29.9550 C.3   272  ASN272      0.1688
     39  C         37.9470   29.5070   30.2360 C.2   272  ASN272      0.2292
     40  O         38.2740   30.2790   29.3360 O.2   272  ASN272     -0.2864
     41  CB        36.4280   28.5070   28.5480 C.3   272  ASN272      0.1181
     42  CG        36.3250   27.2000   27.8060 C.2   272  ASN272      0.2629
     43  OD1       37.3270   26.6780   27.3130 O.2   272  ASN272     -0.2716
     44  ND2       35.1070   26.6560   27.7200 N.am  272  ASN272     -0.0877
     45  N         39.0570   17.1360   33.2300 N.3   327  ASP327     -0.1239
     46  CA        39.9120   18.2830   32.9690 C.3   327  ASP327      0.1674
     47  C         41.0720   18.2190   33.9410 C.2   327  ASP327      0.2266
     48  O         41.2560   17.1890   34.5880 O.2   327  ASP327     -0.2867
     49  CB        39.1530   19.5940   33.1070 C.3   327  ASP327      0.1410
     50  CG        39.6620   20.6430   32.1520 C.2   327  ASP327      0.3668
     51  OD1       38.9090   21.5860   31.8440 O.co2 327  ASP327     -0.2456
     52  OD2       40.8210   20.5180   31.7120 O.co2 327  ASP327     -0.2456
     53  N         39.1930   19.3600   27.8000 N.3   365  HIS365     -0.1226
     54  CA        37.9640   20.0440   27.4010 C.3   365  HIS365      0.1752
     55  C         38.1200   21.3740   26.6770 C.2   365  HIS365      0.2596
     56  O         37.1250   22.0420   26.3970 O.2   365  HIS365     -0.2718
     57  CB        37.0730   20.2700   28.6300 C.3   365  HIS365      0.0759
     58  CG        36.6230   19.0020   29.2940 C.ar  365  HIS365      0.0818
     59  ND1       35.4460   18.3700   28.9670 N.ar  365  HIS365     -0.2268
     60  CD2       37.1910   18.2630   30.2760 C.ar  365  HIS365      0.1154
     61  CE1       35.3020   17.2900   29.7150 C.ar  365  HIS365      0.1986
     62  NE2       36.3520   17.2010   30.5240 N.ar  365  HIS365     -0.2212
     63  N         39.3420   21.7800   26.3740 N.am  366  THR366     -0.1953
     64  CA        39.5090   23.0410   25.6700 C.3   366  THR366      0.1897
     65  C         40.9200   23.2030   25.1480 C.2   366  THR366      0.2313
     66  O         41.8400   22.5430   25.6320 O.2   366  THR366     -0.2863
     67  CB        39.1660   24.2490   26.5780 C.3   366  THR366      0.1794
     68  OG1       39.2510   25.4700   25.8220 O.3   366  THR366     -0.2208
     69  CG2       40.1150   24.2990   27.7790 C.3   366  THR366      0.0378
     70  N         36.9990   15.5700   23.3770 N.3   443  VAL443     -0.1245
     71  CA        35.5540   15.4480   23.5300 C.3   443  VAL443      0.1561
     72  C         34.7310   15.5040   22.2190 C.2   443  VAL443      0.2260
     73  O         33.4950   15.4810   22.2300 O.2   443  VAL443     -0.2867
     74  CB        35.0560   16.5080   24.5660 C.3   443  VAL443      0.0252
     75  CG1       35.5200   16.1200   25.9760 C.3   443  VAL443      0.0019
     76  CG2       35.5960   17.8930   24.2170 C.3   443  VAL443      0.0019
     77  N         31.3520   13.7390   23.1300 N.3   472  ASN472     -0.1240
     78  CA        30.3630   14.0100   24.1600 C.3   472  ASN472      0.1653
     79  C         28.9690   13.5490   23.7410 C.2   472  ASN472      0.2266
     80  O         28.7260   13.1730   22.5940 O.2   472  ASN472     -0.2867
     81  CB        30.3190   15.5090   24.4650 C.3   472  ASN472      0.1155
     82  CG        31.4930   15.9740   25.3160 C.2   472  ASN472      0.2627
     83  OD1       31.6920   17.1740   25.5040 O.2   472  ASN472     -0.2716
     84  ND2       32.2710   15.0280   25.8360 N.am  472  ASN472     -0.0877
     85  N         34.6250   33.7520   22.0010 N.3   561  TYR561     -0.1227
     86  CA        34.7070   32.6490   21.0450 C.3   561  TYR561      0.1736
     87  C         33.3510   32.0480   20.6550 C.2   561  TYR561      0.2595
     88  O         33.2370   31.4270   19.6010 O.2   561  TYR561     -0.2718
     89  CB        35.6670   31.5560   21.5650 C.3   561  TYR561      0.0548
     90  CG        35.0540   30.4570   22.4240 C.ar  561  TYR561     -0.0200
     91  CD1       34.5190   29.3170   21.8370 C.ar  561  TYR561     -0.0009
     92  CD2       35.0680   30.5310   23.8270 C.ar  561  TYR561     -0.0009
     93  CE1       34.0160   28.2690   22.6160 C.ar  561  TYR561      0.0417
     94  CE2       34.5680   29.4920   24.6100 C.ar  561  TYR561      0.0417
     95  CZ        34.0410   28.3620   24.0010 C.ar  561  TYR561      0.1957
     96  OH        33.5280   27.3300   24.7610 O.3   561  TYR561     -0.2866
     97  N         32.3250   32.2240   21.4890 N.am  562  LYS562     -0.1980
     98  CA        30.9930   31.6970   21.1640 C.3   562  LYS562      0.1596
     99  C         30.3450   32.6570   20.1540 C.2   562  LYS562      0.2287
    100  O         29.3490   32.3260   19.5030 O.2   562  LYS562     -0.2864
    101  CB        30.1260   31.5750   22.4250 C.3   562  LYS562      0.0298
    102  CG        30.7920   30.8530   23.5950 C.3   562  LYS562      0.0038
    103  CD        30.3260   29.4160   23.7220 C.3   562  LYS562      0.0206
    104  CE        30.3220   28.9520   25.1740 C.3   562  LYS562      0.1093
    105  NZ        30.6650   27.4990   25.3020 N.3   562  LYS562     -0.1314
    106  N         37.5600   26.4250   18.0990 N.3   659  THR659     -0.1203
    107  CA        37.5270   26.9210   19.4780 C.3   659  THR659      0.1994
    108  C         36.5870   26.1950   20.4530 C.2   659  THR659      0.2618
    109  O         36.8740   26.1030   21.6460 O.2   659  THR659     -0.2717
    110  CB        37.1840   28.4290   19.5070 C.3   659  THR659      0.1784
    111  OG1       35.8070   28.6250   19.1450 O.3   659  THR659     -0.2211
    112  CG2       38.0580   29.1840   18.5410 C.3   659  THR659      0.0376
    113  N         35.4600   25.6960   19.9600 N.am  660  GLU660     -0.1965
    114  CA        34.5080   24.9860   20.8090 C.3   660  GLU660      0.1733
    115  C         34.8470   23.5010   20.7950 C.2   660  GLU660      0.2616
    116  O         34.5380   22.8030   19.8430 O.2   660  GLU660     -0.2715
    117  CB        33.0810   25.1940   20.2870 C.3   660  GLU660      0.0429
    118  CG        31.9630   24.6670   21.1950 C.3   660  GLU660      0.1163
    119  CD        31.7440   25.5280   22.4400 C.2   660  GLU660      0.3649
    120  OE1       32.3850   25.2520   23.4810 O.co2 660  GLU660     -0.2457
    121  OE2       30.9360   26.4850   22.3830 O.co2 660  GLU660     -0.2457
    122  N         35.4670   23.0230   21.8650 N.am  661  ALA661     -0.1963
    123  CA        35.8820   21.6190   21.9850 C.3   661  ALA661      0.1728
    124  C         34.8790   20.6020   21.4450 C.2   661  ALA661      0.2617
    125  O         35.2420   19.6700   20.7080 O.2   661  ALA661     -0.2715
    126  CB        36.2010   21.2980   23.4520 C.3   661  ALA661      0.0334
    127  N         33.6210   20.7810   21.8260 N.am  662  SER662     -0.1936
    128  CA        32.5720   19.8910   21.3770 C.3   662  SER662      0.2055
    129  C         31.2230   20.5910   21.4090 C.2   662  SER662      0.2644
    130  O         30.5740   20.7570   20.3700 O.2   662  SER662     -0.2714
    131  CB        32.5210   18.6390   22.2610 C.3   662  SER662      0.2130
    132  OG        31.2460   18.0220   22.1730 O.3   662  SER662     -0.2179
    133  N         30.8270   21.0430   22.5970 N.am  663  GLY663     -0.1939
    134  CA        29.5170   21.6480   22.7570 C.3   663  GLY663      0.2014
    135  C         28.5340   20.5060   23.0640 C.2   663  GLY663      0.2639
    136  O         28.7600   19.3380   22.6700 O.2   663  GLY663     -0.2714
    137  N         27.4580   20.8180   23.7850 N.am  664  THR664     -0.1950
    138  CA        26.4590   19.8010   24.1150 C.3   664  THR664      0.1897
    139  C         25.0660   20.4000   23.9570 C.2   664  THR664      0.2313
    140  O         24.0800   19.6860   23.7250 O.2   664  THR664     -0.2863
    141  CB        26.6390   19.2740   25.5430 C.3   664  THR664      0.1794
    142  OG1       26.9270   20.3730   26.4180 O.3   664  THR664     -0.2208
    143  CG2       27.7900   18.2610   25.6010 C.3   664  THR664      0.0378
@<TRIPOS>BOND
     1   106   107    1
     2   112   110    1
     3   111   110    1
     4   107   110    1
     5   107   108    1
     6   100    99    2
     7    88    87    2
     8   116   115    2
     9   113   108   am
    10   113   114    1
    11    99    98    1
    12   117   114    1
    13   117   118    1
    14   130   129    2
    15   108   109    2
    16    87    86    1
    17    87    97   am
    18   125   124    2
    19   115   114    1
    20   115   122   am
    21    86    89    1
    22    86    85    1
    23    98    97    1
    24    98   101    1
    25   118   119    1
    26   128   129    1
    27   128   127    1
    28   128   131    1
    29   129   133   am
    30   124   127   am
    31   124   123    1
    32    89    90    1
    33    91    90   ar
    34    91    93   ar
    35   122   123    1
    36   123   126    1
    37   132   131    1
    38    72    73    2
    39    72    71    1
    40   121   119   ar
    41    90    92   ar
    42   101   102    1
    43   119   120   ar
    44    80    79    2
    45   133   134    1
    46    93    95   ar
    47   136   135    2
    48   134   135    1
    49   135   137   am
    50    77    78    1
    51    70    71    1
    52    71    74    1
    53   102   103    1
    54   103   104    1
    55   140   139    2
    56    79    78    1
    57   137   138    1
    58    92    94   ar
    59   139   138    1
    60    95    94   ar
    61    95    96    1
    62   138   141    1
    63    78    81    1
    64    76    74    1
    65    81    82    1
    66    74    75    1
    67    65    66    2
    68    65    64    1
    69   104   105    1
    70    82    83    2
    71    82    84   am
    72   141   143    1
    73   141   142    1
    74    64    63    1
    75    64    67    1
    76    68    67    1
    77    63    55   am
    78    56    55    2
    79    67    69    1
    80    55    54    1
    81    43    42    2
    82    54    53    1
    83    54    57    1
    84    44    42   am
    85    42    41    1
    86    27    26    1
    87    41    38    1
    88    57    58    1
    89    59    58   ar
    90    59    61   ar
    91    58    60   ar
    92    40    39    2
    93    28    26    1
    94    36    34   ar
    95    26    25    1
    96    10     9    1
    97    10    11    1
    98    61    62   ar
    99    38    39    1
   100    38    37    1
   101    60    62   ar
   102    11    12    2
   103    11    13   am
   104    25    22    1
   105    34    35   ar
   106    34    33    1
   107    32    31    2
   108    37    31   am
   109    13    14    1
   110    22    21    1
   111    22    23    1
   112    31    30    1
   113    33    30    1
   114    14    17    1
   115    14    15    1
   116    52    50   ar
   117    51    50   ar
   118    50    49    1
   119    24    23    2
   120    17    18    1
   121    30    29    1
   122    19    18    1
   123    15    16    2
   124    46    49    1
   125    46    45    1
   126    46    47    1
   127    18    20    1
   128     4     3    2
   129    47    48    2
   130     3     2    1
   131     5     2    1
   132     5     6    1
   133     2     1    1
   134     6     7    2
   135     6     8   am
