@<TRIPOS>MOLECULE
tmp/1ftyA00.pdb
 143 135 0 0 0
SMALL
GASTEIGER

@<TRIPOS>ATOM
      1  N         29.3120   25.5230   35.9970 N.3   121  ASN121     -0.1240
      2  CA        29.3060   26.7610   35.2220 C.3   121  ASN121      0.1653
      3  C         28.5850   26.5990   33.9010 C.2   121  ASN121      0.2266
      4  O         27.8380   27.4650   33.4730 O.2   121  ASN121     -0.2867
      5  CB        30.7320   27.2190   34.9300 C.3   121  ASN121      0.1155
      6  CG        31.3670   27.9290   36.1050 C.2   121  ASN121      0.2627
      7  OD1       31.0680   29.0920   36.3890 O.2   121  ASN121     -0.2716
      8  ND2       32.2480   27.2300   36.8030 N.am  121  ASN121     -0.0877
      9  N         29.0130   23.7700   30.2770 N.3   123  GLY123     -0.1210
     10  CA        29.2500   22.4960   29.6190 C.3   123  GLY123      0.1956
     11  C         29.9610   21.4160   30.4040 C.2   123  GLY123      0.2611
     12  O         29.4920   20.2750   30.4820 O.2   123  GLY123     -0.2717
     13  N         31.0930   21.7780   30.9760 N.am  124  LEU124     -0.1979
     14  CA        31.8960   20.8460   31.7420 C.3   124  LEU124      0.1596
     15  C         31.1010   20.2930   32.9340 C.2   124  LEU124      0.2287
     16  O         31.0700   19.0820   33.1660 O.2   124  LEU124     -0.2864
     17  CB        33.1770   21.5650   32.1840 C.3   124  LEU124      0.0297
     18  CG        34.2180   20.8240   33.0070 C.3   124  LEU124      0.0022
     19  CD1       35.6120   21.3810   32.7640 C.3   124  LEU124      0.0001
     20  CD2       33.8470   20.9950   34.4630 C.3   124  LEU124      0.0001
     21  N         28.2100   18.0620   31.6580 N.3   127  LEU127     -0.1245
     22  CA        28.6650   16.7990   31.0850 C.3   127  LEU127      0.1561
     23  C         28.7430   15.7740   32.2150 C.2   127  LEU127      0.2260
     24  O         28.2410   14.6480   32.1010 O.2   127  LEU127     -0.2867
     25  CB        30.0330   16.9470   30.4160 C.3   127  LEU127      0.0270
     26  CG        30.4280   15.6860   29.6370 C.3   127  LEU127      0.0019
     27  CD1       29.6670   15.6680   28.3170 C.3   127  LEU127      0.0001
     28  CD2       31.9270   15.6330   29.4150 C.3   127  LEU127      0.0001
     29  N         34.2660   30.1200   33.2230 N.3   271  ASP271     -0.1225
     30  CA        34.0080   29.1010   32.2260 C.3   271  ASP271      0.1805
     31  C         35.1340   29.2450   31.2110 C.2   271  ASP271      0.2597
     32  O         35.3250   30.3210   30.6570 O.2   271  ASP271     -0.2718
     33  CB        32.6400   29.3620   31.5840 C.3   271  ASP271      0.1424
     34  CG        32.2050   28.2560   30.6470 C.2   271  ASP271      0.3668
     35  OD1       31.5060   27.3320   31.1110 O.co2 271  ASP271     -0.2456
     36  OD2       32.5550   28.3110   29.4470 O.co2 271  ASP271     -0.2456
     37  N         35.9100   28.1900   30.9840 N.am  272  ASN272     -0.1974
     38  CA        36.9880   28.2870   29.9960 C.3   272  ASN272      0.1688
     39  C         37.9390   29.4580   30.2570 C.2   272  ASN272      0.2292
     40  O         38.2820   30.2020   29.3360 O.2   272  ASN272     -0.2864
     41  CB        36.4110   28.4600   28.5820 C.3   272  ASN272      0.1181
     42  CG        36.2970   27.1650   27.8280 C.2   272  ASN272      0.2629
     43  OD1       37.3060   26.5300   27.5040 O.2   272  ASN272     -0.2716
     44  ND2       35.0610   26.7610   27.5300 N.am  272  ASN272     -0.0877
     45  N         39.0560   17.1190   33.2220 N.3   327  ASP327     -0.1239
     46  CA        39.9170   18.2760   32.9820 C.3   327  ASP327      0.1674
     47  C         41.0840   18.1870   33.9370 C.2   327  ASP327      0.2266
     48  O         41.2740   17.1620   34.5640 O.2   327  ASP327     -0.2867
     49  CB        39.1630   19.5960   33.1740 C.3   327  ASP327      0.1410
     50  CG        39.6470   20.6820   32.2260 C.2   327  ASP327      0.3668
     51  OD1       38.9120   21.6670   32.0040 O.co2 327  ASP327     -0.2456
     52  OD2       40.7650   20.5500   31.7020 O.co2 327  ASP327     -0.2456
     53  N         39.2500   19.3470   27.7700 N.3   365  HIS365     -0.1226
     54  CA        38.0390   20.0080   27.3110 C.3   365  HIS365      0.1752
     55  C         38.1750   21.3130   26.5350 C.2   365  HIS365      0.2596
     56  O         37.1590   21.8780   26.1340 O.2   365  HIS365     -0.2718
     57  CB        37.1040   20.2540   28.5040 C.3   365  HIS365      0.0759
     58  CG        36.6720   19.0070   29.2200 C.ar  365  HIS365      0.0818
     59  ND1       35.4920   18.3530   28.9330 N.ar  365  HIS365     -0.2268
     60  CD2       37.2360   18.3250   30.2450 C.ar  365  HIS365      0.1154
     61  CE1       35.3500   17.3200   29.7510 C.ar  365  HIS365      0.1986
     62  NE2       36.3970   17.2840   30.5570 N.ar  365  HIS365     -0.2212
     63  N         39.3870   21.8190   26.3340 N.am  366  THR366     -0.1953
     64  CA        39.5280   23.0680   25.5820 C.3   366  THR366      0.1897
     65  C         40.9450   23.2450   25.0970 C.2   366  THR366      0.2313
     66  O         41.8670   22.6610   25.6550 O.2   366  THR366     -0.2863
     67  CB        39.1380   24.3030   26.4320 C.3   366  THR366      0.1794
     68  OG1       39.3090   25.5060   25.6620 O.3   366  THR366     -0.2208
     69  CG2       39.9940   24.3710   27.6920 C.3   366  THR366      0.0378
     70  N         37.0150   15.5890   23.3560 N.3   443  VAL443     -0.1245
     71  CA        35.5720   15.4520   23.5090 C.3   443  VAL443      0.1561
     72  C         34.7510   15.5110   22.2160 C.2   443  VAL443      0.2260
     73  O         33.5230   15.5170   22.2330 O.2   443  VAL443     -0.2867
     74  CB        35.0620   16.4860   24.5480 C.3   443  VAL443      0.0252
     75  CG1       35.4810   16.0440   25.9550 C.3   443  VAL443      0.0019
     76  CG2       35.6350   17.8770   24.2410 C.3   443  VAL443      0.0019
     77  N         31.2900   13.6940   23.0910 N.3   472  ASN472     -0.1240
     78  CA        30.3280   13.9760   24.1350 C.3   472  ASN472      0.1653
     79  C         28.9240   13.5500   23.7130 C.2   472  ASN472      0.2266
     80  O         28.6470   13.2830   22.5440 O.2   472  ASN472     -0.2867
     81  CB        30.3360   15.4770   24.4580 C.3   472  ASN472      0.1155
     82  CG        31.5360   15.9020   25.3180 C.2   472  ASN472      0.2627
     83  OD1       31.7660   17.0950   25.5210 O.2   472  ASN472     -0.2716
     84  ND2       32.3040   14.9270   25.8280 N.am  472  ASN472     -0.0877
     85  N         34.6020   33.6850   22.0110 N.3   561  TYR561     -0.1227
     86  CA        34.7250   32.5910   21.0500 C.3   561  TYR561      0.1736
     87  C         33.3790   31.9840   20.6440 C.2   561  TYR561      0.2595
     88  O         33.2670   31.3640   19.5790 O.2   561  TYR561     -0.2718
     89  CB        35.6860   31.5100   21.5860 C.3   561  TYR561      0.0548
     90  CG        35.0860   30.3930   22.4320 C.ar  561  TYR561     -0.0200
     91  CD1       34.5740   29.2430   21.8410 C.ar  561  TYR561     -0.0009
     92  CD2       35.0890   30.4620   23.8310 C.ar  561  TYR561     -0.0009
     93  CE1       34.0800   28.1930   22.6060 C.ar  561  TYR561      0.0417
     94  CE2       34.5920   29.4090   24.6110 C.ar  561  TYR561      0.0417
     95  CZ        34.0900   28.2760   23.9880 C.ar  561  TYR561      0.1957
     96  OH        33.5830   27.2320   24.7330 O.3   561  TYR561     -0.2866
     97  N         32.3600   32.1640   21.4790 N.am  562  LYS562     -0.1980
     98  CA        31.0300   31.6420   21.1660 C.3   562  LYS562      0.1596
     99  C         30.3790   32.5770   20.1440 C.2   562  LYS562      0.2287
    100  O         29.4000   32.2120   19.4970 O.2   562  LYS562     -0.2864
    101  CB        30.1720   31.5470   22.4310 C.3   562  LYS562      0.0298
    102  CG        30.8360   30.8530   23.6180 C.3   562  LYS562      0.0038
    103  CD        30.4230   29.3910   23.7390 C.3   562  LYS562      0.0206
    104  CE        30.4330   28.9200   25.1900 C.3   562  LYS562      0.1093
    105  NZ        30.6740   27.4470   25.2750 N.3   562  LYS562     -0.1314
    106  N         37.5620   26.3850   18.0520 N.3   659  THR659     -0.1203
    107  CA        37.5520   26.8780   19.4320 C.3   659  THR659      0.1994
    108  C         36.6040   26.1400   20.3980 C.2   659  THR659      0.2618
    109  O         36.9160   26.0080   21.5900 O.2   659  THR659     -0.2717
    110  CB        37.2580   28.4040   19.4650 C.3   659  THR659      0.1784
    111  OG1       35.8790   28.6460   19.1670 O.3   659  THR659     -0.2211
    112  CG2       38.0940   29.1070   18.4340 C.3   659  THR659      0.0376
    113  N         35.4610   25.6610   19.9050 N.am  660  GLU660     -0.1965
    114  CA        34.5130   24.9370   20.7540 C.3   660  GLU660      0.1733
    115  C         34.8890   23.4600   20.7400 C.2   660  GLU660      0.2616
    116  O         34.6870   22.7760   19.7450 O.2   660  GLU660     -0.2715
    117  CB        33.0920   25.1200   20.2220 C.3   660  GLU660      0.0429
    118  CG        31.9750   24.6290   21.1520 C.3   660  GLU660      0.1163
    119  CD        31.7750   25.5070   22.3920 C.2   660  GLU660      0.3649
    120  OE1       32.3680   25.2030   23.4490 O.co2 660  GLU660     -0.2457
    121  OE2       31.0170   26.5050   22.3200 O.co2 660  GLU660     -0.2457
    122  N         35.4370   22.9640   21.8420 N.am  661  ALA661     -0.1963
    123  CA        35.8650   21.5630   21.9180 C.3   661  ALA661      0.1728
    124  C         34.8400   20.5660   21.3840 C.2   661  ALA661      0.2617
    125  O         35.1710   19.6710   20.5940 O.2   661  ALA661     -0.2715
    126  CB        36.2270   21.2020   23.3480 C.3   661  ALA661      0.0334
    127  N         33.6020   20.7150   21.8310 N.am  662  SER662     -0.1936
    128  CA        32.5360   19.8350   21.4000 C.3   662  SER662      0.2055
    129  C         31.2050   20.5620   21.4490 C.2   662  SER662      0.2644
    130  O         30.5580   20.7790   20.4180 O.2   662  SER662     -0.2714
    131  CB        32.4680   18.5930   22.2980 C.3   662  SER662      0.2130
    132  OG        31.1930   17.9620   22.2070 O.3   662  SER662     -0.2179
    133  N         30.8200   20.9580   22.6530 N.am  663  GLY663     -0.1939
    134  CA        29.5420   21.6090   22.8410 C.3   663  GLY663      0.2014
    135  C         28.5720   20.4790   23.1180 C.2   663  GLY663      0.2639
    136  O         28.8130   19.3350   22.7330 O.2   663  GLY663     -0.2714
    137  N         27.4770   20.7870   23.8000 N.am  664  THR664     -0.1950
    138  CA        26.4620   19.7830   24.1030 C.3   664  THR664      0.1897
    139  C         25.0790   20.3850   23.9560 C.2   664  THR664      0.2313
    140  O         24.1000   19.6660   23.7810 O.2   664  THR664     -0.2863
    141  CB        26.6270   19.2310   25.5120 C.3   664  THR664      0.1794
    142  OG1       26.8900   20.3180   26.4050 O.3   664  THR664     -0.2208
    143  CG2       27.7740   18.2220   25.5580 C.3   664  THR664      0.0378
@<TRIPOS>BOND
     1   106   107    1
     2   112   110    1
     3   111   110    1
     4   107   110    1
     5   107   108    1
     6   100    99    2
     7    88    87    2
     8   116   115    2
     9   113   108   am
    10   113   114    1
    11    99    98    1
    12   117   114    1
    13   117   118    1
    14   108   109    2
    15   130   129    2
    16   125   124    2
    17    87    86    1
    18    87    97   am
    19   115   114    1
    20   115   122   am
    21    86    89    1
    22    86    85    1
    23   118   119    1
    24    98    97    1
    25    98   101    1
    26   124   127   am
    27   124   123    1
    28   128   129    1
    29   128   127    1
    30   128   131    1
    31   129   133   am
    32    89    90    1
    33    91    90   ar
    34    91    93   ar
    35   122   123    1
    36   123   126    1
    37   132   131    1
    38    72    73    2
    39    72    71    1
    40   121   119   ar
    41   119   120   ar
    42   101   102    1
    43    90    92   ar
    44    80    79    2
    45    93    95   ar
    46   133   134    1
    47   136   135    2
    48   134   135    1
    49    77    78    1
    50   135   137   am
    51    70    71    1
    52    71    74    1
    53   102   103    1
    54    79    78    1
    55   103   104    1
    56   140   139    2
    57   137   138    1
    58    92    94   ar
    59   139   138    1
    60    95    94   ar
    61    95    96    1
    62   138   141    1
    63    78    81    1
    64    76    74    1
    65    81    82    1
    66    74    75    1
    67    65    64    1
    68    65    66    2
    69   104   105    1
    70    82    83    2
    71    82    84   am
    72   141   143    1
    73   141   142    1
    74    64    63    1
    75    64    67    1
    76    68    67    1
    77    56    55    2
    78    63    55   am
    79    67    69    1
    80    55    54    1
    81    54    53    1
    82    54    57    1
    83    43    42    2
    84    44    42   am
    85    42    41    1
    86    27    26    1
    87    57    58    1
    88    41    38    1
    89    59    58   ar
    90    59    61   ar
    91    58    60   ar
    92    40    39    2
    93    28    26    1
    94    36    34   ar
    95    10     9    1
    96    10    11    1
    97    26    25    1
    98    61    62   ar
    99    38    39    1
   100    38    37    1
   101    60    62   ar
   102    11    12    2
   103    11    13   am
   104    25    22    1
   105    34    35   ar
   106    34    33    1
   107    32    31    2
   108    13    14    1
   109    37    31   am
   110    22    21    1
   111    22    23    1
   112    31    30    1
   113    33    30    1
   114    52    50   ar
   115    14    17    1
   116    14    15    1
   117    51    50   ar
   118    24    23    2
   119    17    18    1
   120    30    29    1
   121    50    49    1
   122    19    18    1
   123    15    16    2
   124    46    49    1
   125    46    45    1
   126    46    47    1
   127    18    20    1
   128     4     3    2
   129     3     2    1
   130    47    48    2
   131     5     2    1
   132     5     6    1
   133     2     1    1
   134     6     7    2
   135     6     8   am
