@<TRIPOS>MOLECULE
tmp/1fu4A00.pdb
 175 166 0 0 0
SMALL
GASTEIGER

@<TRIPOS>ATOM
      1  N         33.0220   20.0880   39.2810 N.3    76  GLU76      -0.1245
      2  CA        31.7100   20.6040   38.9280 C.3    76  GLU76       0.1567
      3  C         30.7050   19.5350   38.6040 C.2    76  GLU76       0.2260
      4  O         31.0110   18.5350   37.9750 O.2    76  GLU76      -0.2867
      5  CB        31.8240   21.5660   37.7500 C.3    76  GLU76       0.0388
      6  CG        32.4920   22.8770   38.1090 C.3    76  GLU76       0.1160
      7  CD        32.6020   23.8200   36.9440 C.2    76  GLU76       0.3649
      8  OE1       33.6060   24.5510   36.8970 O.co2  76  GLU76      -0.2457
      9  OE2       31.6960   23.8430   36.0820 O.co2  76  GLU76      -0.2457
     10  N         29.3600   25.5600   36.0180 N.3   121  ASN121     -0.1225
     11  CA        29.3610   26.7720   35.2040 C.3   121  ASN121      0.1785
     12  C         28.6460   26.5960   33.8800 C.2   121  ASN121      0.2598
     13  O         27.8880   27.4490   33.4700 O.2   121  ASN121     -0.2718
     14  CB        30.7880   27.2130   34.9150 C.3   121  ASN121      0.1169
     15  CG        31.3910   27.9860   36.0550 C.2   121  ASN121      0.2627
     16  OD1       31.1510   29.1810   36.2120 O.2   121  ASN121     -0.2716
     17  ND2       32.1800   27.3070   36.8650 N.am  121  ASN121     -0.0877
     18  N         28.9030   25.4880   33.2070 N.am  122  GLY122     -0.1942
     19  CA        28.2750   25.2570   31.9290 C.3   122  GLY122      0.2014
     20  C         28.4890   23.8620   31.4110 C.2   122  GLY122      0.2639
     21  O         28.0830   22.9040   32.0520 O.2   122  GLY122     -0.2714
     22  N         29.1530   23.7560   30.2640 N.am  123  GLY123     -0.1939
     23  CA        29.3740   22.4730   29.6200 C.3   123  GLY123      0.2014
     24  C         30.0010   21.3750   30.4370 C.2   123  GLY123      0.2638
     25  O         29.4290   20.2880   30.6100 O.2   123  GLY123     -0.2714
     26  N         31.2020   21.6650   30.9240 N.am  124  LEU124     -0.1977
     27  CA        31.9730   20.7210   31.7120 C.3   124  LEU124      0.1596
     28  C         31.1370   20.1790   32.8860 C.2   124  LEU124      0.2287
     29  O         31.0210   18.9640   33.0680 O.2   124  LEU124     -0.2864
     30  CB        33.2470   21.4240   32.1820 C.3   124  LEU124      0.0297
     31  CG        34.2380   20.6930   33.0750 C.3   124  LEU124      0.0022
     32  CD1       35.6400   21.2160   32.8640 C.3   124  LEU124      0.0001
     33  CD2       33.8330   20.9160   34.5040 C.3   124  LEU124      0.0001
     34  N         28.1940   18.0600   31.7330 N.3   127  LEU127     -0.1245
     35  CA        28.6210   16.7940   31.1640 C.3   127  LEU127      0.1561
     36  C         28.6940   15.7560   32.2710 C.2   127  LEU127      0.2260
     37  O         28.1930   14.6310   32.1430 O.2   127  LEU127     -0.2867
     38  CB        29.9860   16.9400   30.4980 C.3   127  LEU127      0.0270
     39  CG        30.4250   15.6980   29.7200 C.3   127  LEU127      0.0019
     40  CD1       29.7240   15.6520   28.3670 C.3   127  LEU127      0.0001
     41  CD2       31.9370   15.7180   29.5620 C.3   127  LEU127      0.0001
     42  N         34.0820   30.8300   36.4920 N.3   270  ASN270     -0.1225
     43  CA        34.7910   30.9780   35.2150 C.3   270  ASN270      0.1785
     44  C         34.5620   29.9160   34.1310 C.2   270  ASN270      0.2597
     45  O         34.3430   28.7740   34.3850 O.2   270  ASN270     -0.2718
     46  CB        36.3180   31.0780   35.5080 C.3   270  ASN270      0.1169
     47  CG        36.6610   32.1690   36.4630 C.2   270  ASN270      0.2627
     48  OD1       36.0620   33.2750   36.4030 O.2   270  ASN270     -0.2716
     49  ND2       37.6330   31.9390   37.3450 N.am  270  ASN270     -0.0877
     50  N         34.6750   30.3450   32.8710 N.am  271  ASP271     -0.1960
     51  CA        34.5020   29.4380   31.7890 C.3   271  ASP271      0.1840
     52  C         35.6760   29.5690   30.8630 C.2   271  ASP271      0.2622
     53  O         35.9860   30.6570   30.4280 O.2   271  ASP271     -0.2715
     54  CB        33.1880   29.7190   31.0180 C.3   271  ASP271      0.1450
     55  CG        33.1980   29.1500   29.6110 C.2   271  ASP271      0.3671
     56  OD1       32.2320   29.4010   28.8860 O.co2 271  ASP271     -0.2456
     57  OD2       34.1580   28.4430   29.2160 O.co2 271  ASP271     -0.2456
     58  N         36.2970   28.4430   30.5370 N.am  272  ASN272     -0.1972
     59  CA        37.4330   28.4400   29.6090 C.3   272  ASN272      0.1688
     60  C         38.3680   29.5710   30.0160 C.2   272  ASN272      0.2292
     61  O         38.9510   30.2770   29.2190 O.2   272  ASN272     -0.2864
     62  CB        36.9650   28.6280   28.1740 C.3   272  ASN272      0.1181
     63  CG        36.9040   27.3290   27.4240 C.2   272  ASN272      0.2629
     64  OD1       37.9610   26.7640   27.0520 O.2   272  ASN272     -0.2716
     65  ND2       35.6980   26.7980   27.1790 N.am  272  ASN272     -0.0877
     66  N         39.1080   17.0940   33.2420 N.3   327  ASP327     -0.1239
     67  CA        39.9760   18.2430   33.0010 C.3   327  ASP327      0.1674
     68  C         41.1380   18.1810   33.9750 C.2   327  ASP327      0.2266
     69  O         41.3580   17.1470   34.6010 O.2   327  ASP327     -0.2867
     70  CB        39.2160   19.5540   33.1540 C.3   327  ASP327      0.1410
     71  CG        39.7630   20.6410   32.2610 C.2   327  ASP327      0.3668
     72  OD1       39.0340   21.6070   31.9650 O.co2 327  ASP327     -0.2456
     73  OD2       40.9320   20.5400   31.8570 O.co2 327  ASP327     -0.2456
     74  N         39.2800   19.3500   27.8610 N.3   365  HIS365     -0.1226
     75  CA        38.0690   20.0330   27.4090 C.3   365  HIS365      0.1752
     76  C         38.2550   21.3450   26.6650 C.2   365  HIS365      0.2596
     77  O         37.2750   22.0070   26.3260 O.2   365  HIS365     -0.2718
     78  CB        37.1220   20.3000   28.5860 C.3   365  HIS365      0.0759
     79  CG        36.6570   19.0610   29.2860 C.ar  365  HIS365      0.0818
     80  ND1       35.4360   18.4780   29.0460 N.ar  365  HIS365     -0.2268
     81  CD2       37.2600   18.3080   30.2350 C.ar  365  HIS365      0.1154
     82  CE1       35.3000   17.4110   29.8110 C.ar  365  HIS365      0.1986
     83  NE2       36.3970   17.2860   30.5470 N.ar  365  HIS365     -0.2212
     84  N         39.4830   21.7510   26.4100 N.am  366  THR366     -0.1953
     85  CA        39.6380   22.9780   25.6550 C.3   366  THR366      0.1897
     86  C         41.0320   23.1630   25.1400 C.2   366  THR366      0.2313
     87  O         41.9560   22.5150   25.6220 O.2   366  THR366     -0.2863
     88  CB        39.2890   24.1970   26.4820 C.3   366  THR366      0.1794
     89  OG1       39.5140   25.3720   25.6950 O.3   366  THR366     -0.2208
     90  CG2       40.1420   24.2220   27.7540 C.3   366  THR366      0.0378
     91  N         37.0410   15.6420   23.3920 N.3   443  VAL443     -0.1245
     92  CA        35.5960   15.4710   23.5470 C.3   443  VAL443      0.1561
     93  C         34.7800   15.5440   22.2550 C.2   443  VAL443      0.2260
     94  O         33.5560   15.6310   22.2750 O.2   443  VAL443     -0.2867
     95  CB        35.0500   16.4980   24.5950 C.3   443  VAL443      0.0252
     96  CG1       35.5590   16.1420   26.0040 C.3   443  VAL443      0.0019
     97  CG2       35.4840   17.9060   24.2170 C.3   443  VAL443      0.0019
     98  N         31.3820   13.7390   23.1920 N.3   472  ASN472     -0.1240
     99  CA        30.4150   13.9970   24.2480 C.3   472  ASN472      0.1653
    100  C         29.0280   13.5660   23.8030 C.2   472  ASN472      0.2266
    101  O         28.7960   13.2430   22.6300 O.2   472  ASN472     -0.2867
    102  CB        30.3890   15.4860   24.5880 C.3   472  ASN472      0.1155
    103  CG        31.6230   15.9410   25.3600 C.2   472  ASN472      0.2627
    104  OD1       31.8490   17.1340   25.5230 O.2   472  ASN472     -0.2716
    105  ND2       32.4200   14.9940   25.8340 N.am  472  ASN472     -0.0877
    106  N         27.1130   30.0310   27.8380 N.3   557  ARG557     -0.1245
    107  CA        27.8430   31.0770   28.5380 C.3   557  ARG557      0.1563
    108  C         28.2680   32.1640   27.5480 C.2   557  ARG557      0.2260
    109  O         28.4980   31.8840   26.3780 O.2   557  ARG557     -0.2867
    110  CB        29.0380   30.4700   29.2750 C.3   557  ARG557      0.0307
    111  CG        28.6530   29.6450   30.5040 C.3   557  ARG557      0.0489
    112  CD        28.0980   30.5330   31.6100 C.3   557  ARG557      0.2205
    113  NE        29.1080   31.4720   32.0870 N.pl3 557  ARG557     -0.0865
    114  CZ        29.8290   31.2970   33.1890 C.cat 557  ARG557      0.5346
    115  NH1       30.7310   32.1980   33.5520 N.pl3 557  ARG557      0.1354
    116  NH2       29.6430   30.2180   33.9300 N.pl3 557  ARG557      0.1354
    117  N         34.6400   33.6990   22.0250 N.3   561  TYR561     -0.1227
    118  CA        34.7740   32.6320   21.0750 C.3   561  TYR561      0.1736
    119  C         33.4260   32.0550   20.6400 C.2   561  TYR561      0.2595
    120  O         33.2700   31.4770   19.5520 O.2   561  TYR561     -0.2718
    121  CB        35.7000   31.5130   21.5860 C.3   561  TYR561      0.0548
    122  CG        35.0580   30.4530   22.4490 C.ar  561  TYR561     -0.0200
    123  CD1       34.4890   29.3300   21.8760 C.ar  561  TYR561     -0.0009
    124  CD2       35.1210   30.5180   23.8450 C.ar  561  TYR561     -0.0009
    125  CE1       34.0190   28.2920   22.6420 C.ar  561  TYR561      0.0417
    126  CE2       34.6420   29.4610   24.6400 C.ar  561  TYR561      0.0417
    127  CZ        34.0880   28.3480   24.0200 C.ar  561  TYR561      0.1957
    128  OH        33.6060   27.2830   24.7450 O.3   561  TYR561     -0.2866
    129  N         32.4200   32.2380   21.4810 N.am  562  LYS562     -0.1980
    130  CA        31.0800   31.7430   21.1630 C.3   562  LYS562      0.1596
    131  C         30.4120   32.6810   20.1580 C.2   562  LYS562      0.2287
    132  O         29.4070   32.3420   19.5530 O.2   562  LYS562     -0.2864
    133  CB        30.2150   31.6330   22.4290 C.3   562  LYS562      0.0298
    134  CG        30.8730   30.9060   23.6020 C.3   562  LYS562      0.0038
    135  CD        30.3380   29.4780   23.7440 C.3   562  LYS562      0.0206
    136  CE        30.3170   28.9980   25.1960 C.3   562  LYS562      0.1093
    137  NZ        30.4640   27.5040   25.3130 N.3   562  LYS562     -0.1314
    138  N         37.5960   26.4470   18.0780 N.3   659  THR659     -0.1203
    139  CA        37.5410   26.9280   19.4510 C.3   659  THR659      0.1994
    140  C         36.5920   26.1940   20.4120 C.2   659  THR659      0.2618
    141  O         36.8820   26.0900   21.6100 O.2   659  THR659     -0.2717
    142  CB        37.1950   28.4250   19.4590 C.3   659  THR659      0.1784
    143  OG1       35.8250   28.6130   19.0760 O.3   659  THR659     -0.2211
    144  CG2       38.0680   29.1510   18.4690 C.3   659  THR659      0.0376
    145  N         35.4640   25.6990   19.9120 N.am  660  GLU660     -0.1965
    146  CA        34.5250   24.9930   20.7750 C.3   660  GLU660      0.1733
    147  C         34.8740   23.5010   20.7550 C.2   660  GLU660      0.2616
    148  O         34.5670   22.7940   19.8010 O.2   660  GLU660     -0.2715
    149  CB        33.0920   25.2040   20.2840 C.3   660  GLU660      0.0429
    150  CG        32.0040   24.6980   21.2430 C.3   660  GLU660      0.1163
    151  CD        31.8540   25.5630   22.4940 C.2   660  GLU660      0.3649
    152  OE1       32.5190   25.2680   23.5110 O.co2 660  GLU660     -0.2457
    153  OE2       31.0680   26.5370   22.4580 O.co2 660  GLU660     -0.2457
    154  N         35.5410   23.0380   21.8060 N.am  661  ALA661     -0.1963
    155  CA        35.9550   21.6390   21.9410 C.3   661  ALA661      0.1728
    156  C         34.9240   20.6350   21.4450 C.2   661  ALA661      0.2617
    157  O         35.2550   19.6930   20.7280 O.2   661  ALA661     -0.2715
    158  CB        36.2930   21.3480   23.3920 C.3   661  ALA661      0.0334
    159  N         33.6830   20.8170   21.8690 N.am  662  SER662     -0.1936
    160  CA        32.6170   19.9360   21.4470 C.3   662  SER662      0.2055
    161  C         31.2720   20.6360   21.4540 C.2   662  SER662      0.2644
    162  O         30.6510   20.8040   20.4020 O.2   662  SER662     -0.2714
    163  CB        32.5320   18.6880   22.3390 C.3   662  SER662      0.2130
    164  OG        31.2290   18.1190   22.2730 O.3   662  SER662     -0.2179
    165  N         30.8460   21.0690   22.6390 N.am  663  GLY663     -0.1939
    166  CA        29.5420   21.6740   22.7870 C.3   663  GLY663      0.2014
    167  C         28.5890   20.5320   23.0970 C.2   663  GLY663      0.2639
    168  O         28.8630   19.3900   22.7560 O.2   663  GLY663     -0.2714
    169  N         27.4840   20.8290   23.7710 N.am  664  THR664     -0.1950
    170  CA        26.4830   19.8080   24.1080 C.3   664  THR664      0.1897
    171  C         25.0950   20.4050   23.9930 C.2   664  THR664      0.2313
    172  O         24.1010   19.7150   23.8300 O.2   664  THR664     -0.2863
    173  CB        26.6910   19.2530   25.5180 C.3   664  THR664      0.1794
    174  OG1       26.9950   20.3280   26.4140 O.3   664  THR664     -0.2208
    175  CG2       27.8500   18.2520   25.5160 C.3   664  THR664      0.0378
@<TRIPOS>BOND
     1   138   139    1
     2   144   142    1
     3   143   142    1
     4   139   142    1
     5   139   140    1
     6   120   119    2
     7   132   131    2
     8   148   147    2
     9   145   140   am
    10   145   146    1
    11   131   130    1
    12   149   146    1
    13   149   150    1
    14   162   161    2
    15   140   141    2
    16   119   118    1
    17   119   129   am
    18   157   156    2
    19   147   146    1
    20   147   154   am
    21   118   121    1
    22   118   117    1
    23   130   129    1
    24   130   133    1
    25   150   151    1
    26   156   159   am
    27   156   155    1
    28   160   161    1
    29   160   159    1
    30   160   163    1
    31   161   165   am
    32   121   122    1
    33   154   155    1
    34   123   122   ar
    35   123   125   ar
    36   155   158    1
    37    93    94    2
    38    93    92    1
    39   164   163    1
    40   133   134    1
    41   122   124   ar
    42   153   151   ar
    43   151   152   ar
    44   101   100    2
    45   165   166    1
    46   125   127   ar
    47   168   167    2
    48   166   167    1
    49   167   169   am
    50    98    99    1
    51    91    92    1
    52    92    95    1
    53   134   135    1
    54   135   136    1
    55   169   170    1
    56   100    99    1
    57   172   171    2
    58   124   126   ar
    59   171   170    1
    60   127   126   ar
    61   127   128    1
    62   170   173    1
    63    97    95    1
    64    99   102    1
    65   102   103    1
    66    95    96    1
    67    86    87    2
    68    86    85    1
    69   136   137    1
    70   103   104    2
    71   103   105   am
    72   175   173    1
    73   173   174    1
    74    85    84    1
    75    85    88    1
    76    89    88    1
    77    77    76    2
    78   109   108    2
    79    84    76   am
    80    88    90    1
    81    76    75    1
    82    64    63    2
    83    65    63   am
    84    75    74    1
    85    75    78    1
    86    63    62    1
    87   108   107    1
    88   106   107    1
    89    62    59    1
    90    40    39    1
    91   107   110    1
    92    78    79    1
    93    56    55   ar
    94    80    79   ar
    95    80    82   ar
    96    57    55   ar
    97    61    60    2
    98   110   111    1
    99    79    81   ar
   100    41    39    1
   101    59    60    1
   102    59    58    1
   103    55    54    1
   104    23    22    1
   105    23    24    1
   106    39    38    1
   107    82    83   ar
   108    81    83   ar
   109    22    20   am
   110    53    52    2
   111    24    25    2
   112    24    26   am
   113    38    35    1
   114   111   112    1
   115    58    52   am
   116    52    51    1
   117    26    27    1
   118    54    51    1
   119    35    34    1
   120    35    36    1
   121    20    19    1
   122    20    21    2
   123   112   113    1
   124    27    30    1
   125    27    28    1
   126    51    50    1
   127    73    71   ar
   128    19    18    1
   129    72    71   ar
   130   113   114    2
   131    37    36    2
   132    30    31    1
   133    71    70    1
   134    32    31    1
   135    50    44   am
   136    28    29    2
   137    67    70    1
   138    67    66    1
   139    67    68    1
   140    31    33    1
   141   114   115    1
   142   114   116    1
   143    18    12   am
   144    13    12    2
   145    12    11    1
   146    68    69    2
   147    44    45    2
   148    44    43    1
   149    14    11    1
   150    14    15    1
   151    11    10    1
   152    43    46    1
   153    43    42    1
   154    46    47    1
   155    15    16    2
   156    15    17   am
   157     9     7   ar
   158    48    47    2
   159    47    49   am
   160     8     7   ar
   161     7     6    1
   162     5     6    1
   163     5     2    1
   164     4     3    2
   165     3     2    1
   166     2     1    1
