@<TRIPOS>MOLECULE
tmp/1fu7A00.pdb
 150 142 0 0 0
SMALL
GASTEIGER

@<TRIPOS>ATOM
      1  N         29.0180   23.7940   30.2460 N.3   123  GLY123     -0.1210
      2  CA        29.2380   22.5190   29.5840 C.3   123  GLY123      0.1956
      3  C         29.9450   21.4400   30.3570 C.2   123  GLY123      0.2611
      4  O         29.4850   20.3010   30.4140 O.2   123  GLY123     -0.2717
      5  N         31.0770   21.7900   30.9490 N.am  124  LEU124     -0.1979
      6  CA        31.8560   20.8340   31.7160 C.3   124  LEU124      0.1596
      7  C         31.0600   20.2710   32.9120 C.2   124  LEU124      0.2287
      8  O         31.0400   19.0580   33.1410 O.2   124  LEU124     -0.2864
      9  CB        33.1490   21.5090   32.1780 C.3   124  LEU124      0.0297
     10  CG        34.1410   20.6960   32.9980 C.3   124  LEU124      0.0022
     11  CD1       35.5580   21.1590   32.7250 C.3   124  LEU124      0.0001
     12  CD2       33.8150   20.8960   34.4560 C.3   124  LEU124      0.0001
     13  N         28.1270   18.0420   31.7500 N.3   127  LEU127     -0.1245
     14  CA        28.5840   16.7690   31.1860 C.3   127  LEU127      0.1561
     15  C         28.7070   15.7460   32.3070 C.2   127  LEU127      0.2260
     16  O         28.2500   14.5960   32.1810 O.2   127  LEU127     -0.2867
     17  CB        29.9360   16.9170   30.4830 C.3   127  LEU127      0.0270
     18  CG        30.3150   15.6690   29.6720 C.3   127  LEU127      0.0019
     19  CD1       29.6100   15.6980   28.3190 C.3   127  LEU127      0.0001
     20  CD2       31.8130   15.5940   29.4910 C.3   127  LEU127      0.0001
     21  N         34.1350   30.1800   33.1280 N.3   271  ASP271     -0.1225
     22  CA        33.9090   29.1270   32.1610 C.3   271  ASP271      0.1805
     23  C         35.0290   29.3020   31.1530 C.2   271  ASP271      0.2597
     24  O         35.1970   30.3800   30.5800 O.2   271  ASP271     -0.2718
     25  CB        32.5440   29.2750   31.4820 C.3   271  ASP271      0.1424
     26  CG        32.2680   28.1550   30.4760 C.2   271  ASP271      0.3668
     27  OD1       31.4580   27.2500   30.7820 O.co2 271  ASP271     -0.2456
     28  OD2       32.8670   28.1800   29.3750 O.co2 271  ASP271     -0.2456
     29  N         35.8290   28.2620   30.9610 N.am  272  ASN272     -0.1974
     30  CA        36.9370   28.3350   30.0190 C.3   272  ASN272      0.1688
     31  C         37.8430   29.5380   30.2990 C.2   272  ASN272      0.2292
     32  O         38.1330   30.3390   29.4120 O.2   272  ASN272     -0.2864
     33  CB        36.4060   28.4100   28.5800 C.3   272  ASN272      0.1181
     34  CG        36.2590   27.0440   27.9450 C.2   272  ASN272      0.2629
     35  OD1       37.2260   26.4780   27.4340 O.2   272  ASN272     -0.2716
     36  ND2       35.0430   26.5060   27.9740 N.am  272  ASN272     -0.0877
     37  N         39.0830   17.0970   33.1810 N.3   327  ASP327     -0.1239
     38  CA        39.9710   18.2230   32.9220 C.3   327  ASP327      0.1674
     39  C         41.1380   18.1490   33.9010 C.2   327  ASP327      0.2266
     40  O         41.3520   17.1080   34.5070 O.2   327  ASP327     -0.2867
     41  CB        39.2360   19.5520   33.0750 C.3   327  ASP327      0.1410
     42  CG        39.7490   20.6120   32.1240 C.2   327  ASP327      0.3668
     43  OD1       39.0050   21.5680   31.8450 O.co2 327  ASP327     -0.2456
     44  OD2       40.8960   20.5020   31.6620 O.co2 327  ASP327     -0.2456
     45  N         41.5070   20.0670   36.6800 N.3   329  HIS329     -0.1241
     46  CA        41.1270   20.5080   38.0280 C.3   329  HIS329      0.1621
     47  C         41.4960   19.5390   39.1480 C.2   329  HIS329      0.2264
     48  O         41.9070   19.9720   40.2280 O.2   329  HIS329     -0.2867
     49  CB        39.6380   20.8300   38.0570 C.3   329  HIS329      0.0745
     50  CG        39.2230   21.7480   36.9540 C.ar  329  HIS329      0.0817
     51  ND1       37.9500   21.7720   36.4320 N.ar  329  HIS329     -0.2268
     52  CD2       39.9400   22.6490   36.2360 C.ar  329  HIS329      0.1154
     53  CE1       37.8980   22.6460   35.4410 C.ar  329  HIS329      0.1986
     54  NE2       39.0920   23.1880   35.2990 N.ar  329  HIS329     -0.2212
     55  N         39.2420   19.2740   27.7740 N.3   365  HIS365     -0.1226
     56  CA        38.0080   19.9320   27.3590 C.3   365  HIS365      0.1752
     57  C         38.1730   21.2610   26.6190 C.2   365  HIS365      0.2596
     58  O         37.1730   21.9000   26.2820 O.2   365  HIS365     -0.2718
     59  CB        37.1080   20.1680   28.5810 C.3   365  HIS365      0.0759
     60  CG        36.6660   18.9100   29.2630 C.ar  365  HIS365      0.0818
     61  ND1       35.4320   18.3380   29.0330 N.ar  365  HIS365     -0.2268
     62  CD2       37.2870   18.1140   30.1650 C.ar  365  HIS365      0.1154
     63  CE1       35.3130   17.2400   29.7650 C.ar  365  HIS365      0.1986
     64  NE2       36.4260   17.0840   30.4620 N.ar  365  HIS365     -0.2212
     65  N         39.4010   21.6980   26.3750 N.am  366  THR366     -0.1953
     66  CA        39.5900   22.9710   25.6800 C.3   366  THR366      0.1897
     67  C         41.0110   23.1640   25.1830 C.2   366  THR366      0.2313
     68  O         41.9370   22.5310   25.6860 O.2   366  THR366     -0.2863
     69  CB        39.2230   24.1700   26.5930 C.3   366  THR366      0.1794
     70  OG1       39.2800   25.3980   25.8500 O.3   366  THR366     -0.2208
     71  CG2       40.1800   24.2450   27.7740 C.3   366  THR366      0.0378
     72  N         42.5140   29.2540   29.2550 N.3   371  ALA371     -0.1245
     73  CA        41.7620   28.2830   30.0470 C.3   371  ALA371      0.1562
     74  C         42.6830   27.2270   30.6660 C.2   371  ALA371      0.2260
     75  O         42.3040   26.5350   31.6100 O.2   371  ALA371     -0.2867
     76  CB        40.7050   27.6150   29.1790 C.3   371  ALA371      0.0290
     77  N         37.0380   15.5880   23.3440 N.3   443  VAL443     -0.1245
     78  CA        35.6030   15.4370   23.5200 C.3   443  VAL443      0.1561
     79  C         34.7810   15.5130   22.2270 C.2   443  VAL443      0.2260
     80  O         33.5610   15.6150   22.2490 O.2   443  VAL443     -0.2867
     81  CB        35.1030   16.4670   24.5790 C.3   443  VAL443      0.0252
     82  CG1       35.6340   16.0820   25.9750 C.3   443  VAL443      0.0019
     83  CG2       35.5800   17.8660   24.2140 C.3   443  VAL443      0.0019
     84  N         31.3520   13.7390   23.1410 N.3   472  ASN472     -0.1240
     85  CA        30.3890   13.9950   24.1930 C.3   472  ASN472      0.1653
     86  C         28.9960   13.5450   23.7680 C.2   472  ASN472      0.2266
     87  O         28.7510   13.2080   22.6100 O.2   472  ASN472     -0.2867
     88  CB        30.3560   15.4900   24.5270 C.3   472  ASN472      0.1155
     89  CG        31.5550   15.9520   25.3600 C.2   472  ASN472      0.2627
     90  OD1       31.7590   17.1520   25.5340 O.2   472  ASN472     -0.2716
     91  ND2       32.3440   15.0080   25.8680 N.am  472  ASN472     -0.0877
     92  N         34.6090   33.7700   22.0310 N.3   561  TYR561     -0.1227
     93  CA        34.7200   32.6690   21.0860 C.3   561  TYR561      0.1736
     94  C         33.3790   32.0820   20.6770 C.2   561  TYR561      0.2595
     95  O         33.2710   31.4970   19.6090 O.2   561  TYR561     -0.2718
     96  CB        35.6630   31.5740   21.6410 C.3   561  TYR561      0.0548
     97  CG        35.0460   30.4720   22.4980 C.ar  561  TYR561     -0.0200
     98  CD1       34.4830   29.3380   21.9120 C.ar  561  TYR561     -0.0009
     99  CD2       35.0920   30.5320   23.8970 C.ar  561  TYR561     -0.0009
    100  CE1       33.9860   28.2940   22.6890 C.ar  561  TYR561      0.0417
    101  CE2       34.5930   29.4880   24.6840 C.ar  561  TYR561      0.0417
    102  CZ        34.0430   28.3740   24.0710 C.ar  561  TYR561      0.1957
    103  OH        33.5360   27.3440   24.8280 O.3   561  TYR561     -0.2866
    104  N         32.3580   32.2340   21.5170 N.am  562  LYS562     -0.1980
    105  CA        31.0290   31.7070   21.1970 C.3   562  LYS562      0.1596
    106  C         30.3560   32.6340   20.1850 C.2   562  LYS562      0.2287
    107  O         29.3300   32.2890   19.5900 O.2   562  LYS562     -0.2864
    108  CB        30.1630   31.6040   22.4620 C.3   562  LYS562      0.0298
    109  CG        30.8020   30.8620   23.6360 C.3   562  LYS562      0.0038
    110  CD        30.2650   29.4370   23.7800 C.3   562  LYS562      0.0206
    111  CE        30.2700   28.9540   25.2350 C.3   562  LYS562      0.1093
    112  NZ        30.5650   27.4940   25.3540 N.3   562  LYS562     -0.1314
    113  N         37.5890   26.4200   18.1420 N.3   659  THR659     -0.1203
    114  CA        37.5490   26.9220   19.5130 C.3   659  THR659      0.1994
    115  C         36.5900   26.1920   20.4720 C.2   659  THR659      0.2618
    116  O         36.8580   26.1110   21.6730 O.2   659  THR659     -0.2717
    117  CB        37.2100   28.4330   19.5360 C.3   659  THR659      0.1784
    118  OG1       35.8560   28.6380   19.1070 O.3   659  THR659     -0.2211
    119  CG2       38.1240   29.1920   18.6230 C.3   659  THR659      0.0376
    120  N         35.4740   25.6760   19.9670 N.am  660  GLU660     -0.1965
    121  CA        34.5270   24.9690   20.8270 C.3   660  GLU660      0.1733
    122  C         34.8430   23.4810   20.8210 C.2   660  GLU660      0.2616
    123  O         34.4870   22.7800   19.8940 O.2   660  GLU660     -0.2715
    124  CB        33.0900   25.2100   20.3530 C.3   660  GLU660      0.0429
    125  CG        32.0180   24.6830   21.3080 C.3   660  GLU660      0.1163
    126  CD        31.7890   25.6010   22.5090 C.2   660  GLU660      0.3649
    127  OE1       32.4650   25.4240   23.5550 O.co2 660  GLU660     -0.2457
    128  OE2       30.9290   26.5010   22.4080 O.co2 660  GLU660     -0.2457
    129  N         35.5120   23.0120   21.8670 N.am  661  ALA661     -0.1963
    130  CA        35.9080   21.6060   21.9850 C.3   661  ALA661      0.1728
    131  C         34.8920   20.6070   21.4530 C.2   661  ALA661      0.2617
    132  O         35.2360   19.6740   20.7240 O.2   661  ALA661     -0.2715
    133  CB        36.2190   21.2780   23.4390 C.3   661  ALA661      0.0334
    134  N         33.6420   20.7980   21.8460 N.am  662  SER662     -0.1936
    135  CA        32.5850   19.9120   21.4200 C.3   662  SER662      0.2055
    136  C         31.2370   20.6010   21.4530 C.2   662  SER662      0.2644
    137  O         30.5690   20.7380   20.4250 O.2   662  SER662     -0.2714
    138  CB        32.5450   18.6820   22.3210 C.3   662  SER662      0.2130
    139  OG        31.2530   18.0900   22.2890 O.3   662  SER662     -0.2179
    140  N         30.8490   21.0470   22.6430 N.am  663  GLY663     -0.1939
    141  CA        29.5580   21.6770   22.8120 C.3   663  GLY663      0.2014
    142  C         28.5750   20.5610   23.1210 C.2   663  GLY663      0.2639
    143  O         28.7960   19.4150   22.7320 O.2   663  GLY663     -0.2714
    144  N         27.5040   20.8770   23.8430 N.am  664  THR664     -0.1950
    145  CA        26.4900   19.8760   24.1680 C.3   664  THR664      0.1897
    146  C         25.0990   20.4590   23.9930 C.2   664  THR664      0.2313
    147  O         24.1310   19.7250   23.7830 O.2   664  THR664     -0.2863
    148  CB        26.6560   19.3460   25.5880 C.3   664  THR664      0.1794
    149  OG1       26.9440   20.4370   26.4750 O.3   664  THR664     -0.2208
    150  CG2       27.8010   18.3230   25.6300 C.3   664  THR664      0.0378
@<TRIPOS>BOND
     1   113   114    1
     2   119   117    1
     3   118   117    1
     4   114   117    1
     5   114   115    1
     6   107   106    2
     7    95    94    2
     8   123   122    2
     9   120   115   am
    10   120   121    1
    11   106   105    1
    12   124   121    1
    13   124   125    1
    14   137   136    2
    15   115   116    2
    16    94    93    1
    17    94   104   am
    18   132   131    2
    19   122   121    1
    20   122   129   am
    21    93    96    1
    22    93    92    1
    23   105   104    1
    24   105   108    1
    25   125   126    1
    26   135   136    1
    27   135   134    1
    28   135   138    1
    29   136   140   am
    30   131   134   am
    31   131   130    1
    32    96    97    1
    33   129   130    1
    34    98    97   ar
    35    98   100   ar
    36   130   133    1
    37    79    80    2
    38    79    78    1
    39   139   138    1
    40   128   126   ar
    41   108   109    1
    42    97    99   ar
    43   126   127   ar
    44    87    86    2
    45   140   141    1
    46   100   102   ar
    47   143   142    2
    48   141   142    1
    49   142   144   am
    50    84    85    1
    51    77    78    1
    52    78    81    1
    53   109   110    1
    54    86    85    1
    55   110   111    1
    56   147   146    2
    57   144   145    1
    58    99   101   ar
    59   146   145    1
    60   102   101   ar
    61   102   103    1
    62   145   148    1
    63    85    88    1
    64    83    81    1
    65    88    89    1
    66    81    82    1
    67    67    66    1
    68    67    68    2
    69   111   112    1
    70    89    90    2
    71    89    91   am
    72   148   150    1
    73   148   149    1
    74    66    65    1
    75    66    69    1
    76    70    69    1
    77    58    57    2
    78    65    57   am
    79    69    71    1
    80    57    56    1
    81    56    55    1
    82    56    59    1
    83    35    34    2
    84    34    36   am
    85    34    33    1
    86    19    18    1
    87    33    30    1
    88    59    60    1
    89    61    60   ar
    90    61    63   ar
    91    76    73    1
    92    72    73    1
    93    60    62   ar
    94    28    26   ar
    95    32    31    2
    96    20    18    1
    97     2     1    1
    98     2     3    1
    99    18    17    1
   100    63    64   ar
   101    30    31    1
   102    30    29    1
   103    73    74    1
   104    62    64   ar
   105     3     4    2
   106     3     5   am
   107    26    27   ar
   108    26    25    1
   109    17    14    1
   110    24    23    2
   111    74    75    2
   112     5     6    1
   113    29    23   am
   114    23    22    1
   115    14    13    1
   116    14    15    1
   117    25    22    1
   118    44    42   ar
   119     6     9    1
   120     6     7    1
   121    43    42   ar
   122    42    41    1
   123    22    21    1
   124     9    10    1
   125    16    15    2
   126    11    10    1
   127     7     8    2
   128    38    41    1
   129    38    37    1
   130    38    39    1
   131    10    12    1
   132    39    40    2
   133    54    53   ar
   134    54    52   ar
   135    53    51   ar
   136    52    50   ar
   137    51    50   ar
   138    45    46    1
   139    50    49    1
   140    46    49    1
   141    46    47    1
   142    47    48    2
