@<TRIPOS>MOLECULE
tmp/1fuiB00.pdb
 114 109 0 0 0
SMALL
GASTEIGER

@<TRIPOS>ATOM
      1  N        108.0390   82.3620   62.9980 N.3   185  MET185     -0.1245
      2  CA       109.3640   81.8110   63.3090 C.3   185  MET185      0.1570
      3  C        109.4230   80.6780   64.3570 C.2   185  MET185      0.2261
      4  O        110.3030   80.6620   65.2260 O.2   185  MET185     -0.2867
      5  CB       110.3100   82.9450   63.7220 C.3   185  MET185      0.0387
      6  CG       110.4500   84.0400   62.6870 C.3   185  MET185      0.0595
      7  SD       111.1510   85.4780   63.4730 S.3   185  MET185     -0.1393
      8  CE       112.5540   85.5090   62.6610 C.3   185  MET185      0.0692
      9  N        107.7780   80.1250   66.9420 N.3   187  ILE187     -0.1245
     10  CA       107.4880   80.5470   68.3090 C.3   187  ILE187      0.1561
     11  C        106.2600   79.7910   68.8290 C.2   187  ILE187      0.2260
     12  O        105.1570   79.9330   68.2900 O.2   187  ILE187     -0.2867
     13  CB       107.3020   82.1160   68.3830 C.3   187  ILE187      0.0252
     14  CG1      108.6510   82.7890   68.1260 C.3   187  ILE187      0.0019
     15  CG2      106.7480   82.5830   69.7510 C.3   187  ILE187      0.0019
     16  CD1      108.6170   84.2970   68.0590 C.3   187  ILE187      0.0001
     17  N        106.7270   88.4410   60.7450 N.3   302  GLN302     -0.1245
     18  CA       107.8160   87.6210   60.2350 C.3   302  GLN302      0.1566
     19  C        107.3850   86.1800   60.0860 C.2   302  GLN302      0.2260
     20  O        106.5860   85.7050   60.8610 O.2   302  GLN302     -0.2867
     21  CB       109.0190   87.6810   61.1740 C.3   302  GLN302      0.0367
     22  CG       109.6270   89.0470   61.3050 C.3   302  GLN302      0.0905
     23  CD       111.0510   88.9920   61.7980 C.2   302  GLN302      0.2608
     24  OE1      111.9440   88.5030   61.0990 O.2   302  GLN302     -0.2717
     25  NE2      111.2740   89.4640   63.0140 N.am  302  GLN302     -0.0878
     26  N        104.4280   89.2850   66.6020 N.3   337  GLU337     -0.1245
     27  CA       104.7950   87.9170   66.2320 C.3   337  GLU337      0.1567
     28  C        103.6780   86.9300   66.5370 C.2   337  GLU337      0.2260
     29  O        103.9100   85.7230   66.6320 O.2   337  GLU337     -0.2867
     30  CB       106.0870   87.5020   66.9470 C.3   337  GLU337      0.0388
     31  CG       107.3310   88.0980   66.2990 C.3   337  GLU337      0.1160
     32  CD       108.5430   88.1700   67.2100 C.2   337  GLU337      0.3649
     33  OE1      108.5280   87.6020   68.3280 O.co2 337  GLU337     -0.2457
     34  OE2      109.5440   88.8160   66.8120 O.co2 337  GLU337     -0.2457
     35  N        110.8950   91.5700   74.7800 N.3   361  ASP361     -0.1239
     36  CA       111.7290   90.3930   74.5960 C.3   361  ASP361      0.1674
     37  C        112.6020   90.4520   75.8390 C.2   361  ASP361      0.2266
     38  O        113.0290   91.5470   76.2650 O.2   361  ASP361     -0.2867
     39  CB       112.6040   90.4850   73.3480 C.3   361  ASP361      0.1410
     40  CG       111.9100   89.9610   72.1060 C.2   361  ASP361      0.3668
     41  OD1      111.1400   90.7070   71.4870 O.co2 361  ASP361     -0.2456
     42  OD2      112.0870   88.7820   71.7320 O.co2 361  ASP361     -0.2456
     43  N        115.5970   90.0220   76.6510 N.3   363  ARG363     -0.1245
     44  CA       116.8430   89.8350   75.9370 C.3   363  ARG363      0.1563
     45  C        118.1460   89.4660   76.5950 C.2   363  ARG363      0.2260
     46  O        118.8090   88.5440   76.1370 O.2   363  ARG363     -0.2867
     47  CB       117.1110   90.9510   74.9340 C.3   363  ARG363      0.0307
     48  CG       118.1730   90.4490   73.9750 C.3   363  ARG363      0.0489
     49  CD       118.7960   91.4930   73.1730 C.3   363  ARG363      0.2205
     50  NE       118.2740   91.4450   71.8250 N.pl3 363  ARG363     -0.0865
     51  CZ       119.0210   91.5410   70.7390 C.cat 363  ARG363      0.5346
     52  NH1      120.3330   91.6890   70.8340 N.pl3 363  ARG363      0.1354
     53  NH2      118.4410   91.5150   69.5510 N.pl3 363  ARG363      0.1354
     54  N        111.2860   93.7750   69.8090 N.3   393  SER393     -0.1217
     55  CA       111.8690   93.9240   68.4810 C.3   393  SER393      0.1889
     56  C        111.2860   95.0150   67.5590 C.2   393  SER393      0.2288
     57  O        111.0070   94.7560   66.3870 O.2   393  SER393     -0.2866
     58  CB       111.9170   92.5650   67.7590 C.3   393  SER393      0.2089
     59  OG       110.6390   91.9500   67.7090 O.3   393  SER393     -0.2183
     60  N        116.5710   92.0880   58.0400 N.3   440  TYR440     -0.1227
     61  CA       115.5830   91.4200   58.8700 C.3   440  TYR440      0.1736
     62  C        114.1860   91.7610   58.3950 C.2   440  TYR440      0.2595
     63  O        113.3420   90.8790   58.2520 O.2   440  TYR440     -0.2718
     64  CB       115.7630   91.8110   60.3330 C.3   440  TYR440      0.0548
     65  CG       117.0130   91.2270   60.9390 C.ar  440  TYR440     -0.0200
     66  CD1      117.0560   89.8980   61.3480 C.ar  440  TYR440     -0.0009
     67  CD2      118.1650   91.9910   61.0680 C.ar  440  TYR440     -0.0009
     68  CE1      118.2230   89.3370   61.8660 C.ar  440  TYR440      0.0417
     69  CE2      119.3430   91.4440   61.5890 C.ar  440  TYR440      0.0417
     70  CZ       119.3690   90.1150   61.9830 C.ar  440  TYR440      0.1957
     71  OH       120.5430   89.5650   62.4720 O.3   440  TYR440     -0.2866
     72  N        113.9520   93.0340   58.1080 N.am  441  PHE441     -0.1976
     73  CA       112.6470   93.4980   57.6470 C.3   441  PHE441      0.1639
     74  C        112.8170   94.1410   56.2700 C.2   441  PHE441      0.2290
     75  O        112.8890   95.3680   56.1490 O.2   441  PHE441     -0.2864
     76  CB       112.0850   94.5260   58.6350 C.3   441  PHE441      0.0560
     77  CG       111.9750   94.0150   60.0390 C.ar  441  PHE441     -0.0200
     78  CD1      110.8790   93.2560   60.4310 C.ar  441  PHE441     -0.0042
     79  CD2      112.9900   94.2500   60.9620 C.ar  441  PHE441     -0.0042
     80  CE1      110.7940   92.7340   61.7160 C.ar  441  PHE441     -0.0003
     81  CE2      112.9120   93.7250   62.2650 C.ar  441  PHE441     -0.0003
     82  CZ       111.8100   92.9660   62.6350 C.ar  441  PHE441     -0.0000
     83  N        115.6630  100.0540   69.1300 N.3   499  TRP499     -0.1241
     84  CA       114.4950   99.4730   69.8030 C.3   499  TRP499      0.1605
     85  C        114.2220  100.0700   71.1860 C.2   499  TRP499      0.2264
     86  O        115.1430  100.5460   71.8650 O.2   499  TRP499     -0.2867
     87  CB       114.6570   97.9560   69.8970 C.3   499  TRP499      0.0550
     88  CG       114.5840   97.2860   68.5630 C.ar  499  TRP499      0.0003
     89  CD1      114.2100   97.8640   67.3760 C.ar  499  TRP499      0.0946
     90  CD2      114.8960   95.9140   68.2630 C.ar  499  TRP499      0.0152
     91  NE1      114.2740   96.9430   66.3620 N.ar  499  TRP499     -0.2442
     92  CE2      114.6930   95.7380   66.8690 C.ar  499  TRP499      0.0810
     93  CE3      115.3270   94.8180   69.0300 C.ar  499  TRP499      0.0012
     94  CZ2      114.9080   94.5030   66.2250 C.ar  499  TRP499      0.0191
     95  CZ3      115.5400   93.5870   68.3850 C.ar  499  TRP499      0.0001
     96  CH2      115.3290   93.4470   66.9960 C.ar  499  TRP499      0.0015
     97  N        110.6940   83.6300   75.7150 N.3   527  ASN527     -0.1225
     98  CA       111.5780   84.7400   75.3750 C.3   527  ASN527      0.1785
     99  C        110.8250   86.0760   75.4260 C.2   527  ASN527      0.2597
    100  O        111.3970   87.1370   75.1700 O.2   527  ASN527     -0.2718
    101  CB       112.2000   84.5260   73.9980 C.3   527  ASN527      0.1169
    102  CG       111.1660   84.4110   72.9020 C.2   527  ASN527      0.2627
    103  OD1      110.1330   83.7550   73.0660 O.2   527  ASN527     -0.2716
    104  ND2      111.4340   85.0510   71.7730 N.am  527  ASN527     -0.0877
    105  N        109.5420   86.0220   75.7670 N.am  528  HIS528     -0.1975
    106  CA       108.7320   87.2290   75.8680 C.3   528  HIS528      0.1656
    107  C        108.1240   87.3680   77.2450 C.2   528  HIS528      0.2291
    108  O        107.9410   86.3860   77.9650 O.2   528  HIS528     -0.2864
    109  CB       107.5860   87.2060   74.8680 C.3   528  HIS528      0.0771
    110  CG       108.0250   87.2980   73.4440 C.ar  528  HIS528      0.0820
    111  ND1      107.2100   86.9420   72.3910 N.ar  528  HIS528     -0.2267
    112  CD2      109.2130   87.6510   72.8990 C.ar  528  HIS528      0.1154
    113  CE1      107.8780   87.0600   71.2590 C.ar  528  HIS528      0.1986
    114  NE2      109.1000   87.4820   71.5410 N.ar  528  HIS528     -0.2212
@<TRIPOS>BOND
     1    75    74    2
     2    74    73    1
     3    73    72    1
     4    73    76    1
     5    60    61    1
     6    72    62   am
     7    63    62    2
     8    62    61    1
     9    76    77    1
    10    61    64    1
    11    77    78   ar
    12    77    79   ar
    13    19    18    1
    14    19    20    2
    15    18    17    1
    16    18    21    1
    17    64    65    1
    18    78    80   ar
    19    65    67   ar
    20    65    66   ar
    21    79    81   ar
    22    67    69   ar
    23    24    23    2
    24    21    22    1
    25    22    23    1
    26    66    68   ar
    27    69    70   ar
    28    80    82   ar
    29    23    25   am
    30    68    70   ar
    31    70    71    1
    32    81    82   ar
    33     8     7    1
    34     6     7    1
    35     6     5    1
    36     1     2    1
    37     2     5    1
    38     2     3    1
    39     3     4    2
    40    94    92   ar
    41    94    96   ar
    42    27    28    1
    43    27    26    1
    44    27    30    1
    45    31    30    1
    46    31    32    1
    47    91    92   ar
    48    91    89   ar
    49    57    56    2
    50    28    29    2
    51    34    32   ar
    52    92    90   ar
    53     9    10    1
    54    96    95   ar
    55    32    33   ar
    56    89    88   ar
    57    56    55    1
    58    59    58    1
    59    58    55    1
    60    16    14    1
    61    14    13    1
    62    90    88   ar
    63    90    93   ar
    64    12    11    2
    65    10    13    1
    66    10    11    1
    67    13    15    1
    68    95    93   ar
    69    55    54    1
    70    88    87    1
    71    83    84    1
    72    53    51    1
    73    84    87    1
    74    84    85    1
    75    51    52    1
    76    51    50    2
    77    85    86    2
    78   113   114   ar
    79   113   111   ar
    80    41    40   ar
    81   114   112   ar
    82    42    40   ar
    83   104   102   am
    84    50    49    1
    85    40    39    1
    86   111   110   ar
    87   112   110   ar
    88   102   103    2
    89   102   101    1
    90    49    48    1
    91    39    36    1
    92   110   109    1
    93    48    47    1
    94   101    98    1
    95    36    35    1
    96    36    37    1
    97   109   106    1
    98    47    44    1
    99   100    99    2
   100    98    99    1
   101    98    97    1
   102    99   105   am
   103   105   106    1
   104    37    38    2
   105   106   107    1
   106    44    45    1
   107    44    43    1
   108    46    45    2
   109   107   108    2
