@<TRIPOS>MOLECULE
tmp/1fujD00.pdb
 80 77 0 0 0
SMALL
GASTEIGER

@<TRIPOS>ATOM
      1  N        -22.7290    8.4870   54.9140 N.3    12  ARG12      -0.1245
      2  CA       -22.3050    9.5860   54.0440 C.3    12  ARG12       0.1563
      3  C        -23.5490    9.9910   53.2970 C.2    12  ARG12       0.2260
      4  O        -23.7630    9.5500   52.1740 O.2    12  ARG12      -0.2867
      5  CB       -21.2270    9.1320   53.0710 C.3    12  ARG12       0.0307
      6  CG       -20.9760    7.6540   53.0840 C.3    12  ARG12       0.0489
      7  CD       -19.6890    7.2640   53.8470 C.3    12  ARG12       0.2205
      8  NE       -19.1350    8.3190   54.7000 N.pl3  12  ARG12      -0.0865
      9  CZ       -18.2780    8.0840   55.7070 C.cat  12  ARG12       0.5346
     10  NH1      -17.8670    6.8590   55.9780 N.pl3  12  ARG12       0.1354
     11  NH2      -17.8230    9.0610   56.4490 N.pl3  12  ARG12       0.1354
     12  N        -24.4840   12.5010   51.7220 N.3    14  TYR14      -0.1241
     13  CA       -24.4580   13.4560   50.5770 C.3    14  TYR14       0.1605
     14  C        -24.3320   12.6490   49.2600 C.2    14  TYR14       0.2264
     15  O        -24.1980   13.2300   48.2140 O.2    14  TYR14      -0.2867
     16  CB       -23.2780   14.4390   50.6880 C.3    14  TYR14       0.0534
     17  CG       -22.0800   13.7440   51.2320 C.ar   14  TYR14      -0.0201
     18  CD1      -21.3970   12.8050   50.4510 C.ar   14  TYR14      -0.0009
     19  CD2      -21.7070   13.9060   52.5800 C.ar   14  TYR14      -0.0009
     20  CE1      -20.3520   12.0950   50.9650 C.ar   14  TYR14       0.0417
     21  CE2      -20.6280   13.2130   53.0940 C.ar   14  TYR14       0.0417
     22  CZ       -19.9520   12.3150   52.2770 C.ar   14  TYR14       0.1957
     23  OH       -18.9030   11.5860   52.7610 O.3    14  TYR14      -0.2866
     24  N         -5.0520   11.9510   53.1420 N.3   124  GLN124     -0.1231
     25  CA        -5.7920   10.7220   53.2220 C.3   124  GLN124      0.1698
     26  C         -7.1910   11.1780   53.0620 C.2   124  GLN124      0.2592
     27  O         -7.5940   12.0730   53.7890 O.2   124  GLN124     -0.2718
     28  CB        -5.6570   10.1020   54.6080 C.3   124  GLN124      0.0381
     29  CG        -5.8670    8.5830   54.6030 C.3   124  GLN124      0.0905
     30  CD        -4.6090    7.8090   54.1590 C.2   124  GLN124      0.2608
     31  OE1       -4.1610    6.8910   54.8490 O.2   124  GLN124     -0.2717
     32  NE2       -4.0870    8.1360   52.9830 N.am  124  GLN124     -0.0878
     33  N         -7.9030   10.5560   52.1280 N.am  125  CYS125     -0.1956
     34  CA        -9.2860   10.8830   51.8300 C.3   125  CYS125      0.1843
     35  C        -10.0710    9.6560   51.7880 C.2   125  CYS125      0.2625
     36  O         -9.5300    8.5530   51.8160 O.2   125  CYS125     -0.2714
     37  CB        -9.4280   11.5100   50.4570 C.3   125  CYS125      0.0997
     38  SG        -8.3570   12.9140   50.3580 S.3   125  CYS125     -0.0797
     39  N        -11.3760    9.8400   51.6890 N.am  126  LEU126     -0.1977
     40  CA       -12.1840    8.6750   51.5670 C.3   126  LEU126      0.1596
     41  C        -12.7550    8.7620   50.1540 C.2   126  LEU126      0.2287
     42  O        -13.1130    9.8340   49.7240 O.2   126  LEU126     -0.2864
     43  CB       -13.2870    8.7470   52.6220 C.3   126  LEU126      0.0297
     44  CG       -13.8390    7.4450   53.1330 C.3   126  LEU126      0.0022
     45  CD1      -12.7580    6.5750   53.6560 C.3   126  LEU126      0.0001
     46  CD2      -14.7200    7.8970   54.2490 C.3   126  LEU126      0.0001
     47  N        -10.3970    4.1880   51.8710 N.3   147  ASN147     -0.1240
     48  CA        -9.4410    5.2280   52.2760 C.3   147  ASN147      0.1653
     49  C         -8.3520    5.2570   51.2060 C.2   147  ASN147      0.2266
     50  O         -7.7590    4.2510   50.8570 O.2   147  ASN147     -0.2867
     51  CB        -8.6490    4.9530   53.5500 C.3   147  ASN147      0.1155
     52  CG        -9.4880    4.9670   54.7780 C.2   147  ASN147      0.2627
     53  OD1      -10.3470    4.0870   54.9850 O.2   147  ASN147     -0.2716
     54  ND2       -9.2110    6.0370   55.4910 N.am  147  ASN147     -0.0877
     55  N        -13.6880   12.3120   49.5170 N.3   181  ILE181     -0.1231
     56  CA       -13.8030   13.0740   50.7630 C.3   181  ILE181      0.1692
     57  C        -12.5340   13.1870   51.5890 C.2   181  ILE181      0.2592
     58  O        -11.9990   12.1830   52.0820 O.2   181  ILE181     -0.2718
     59  CB       -15.0570   12.6570   51.6190 C.3   181  ILE181      0.0266
     60  CG1      -16.3300   12.9740   50.8220 C.3   181  ILE181      0.0019
     61  CG2      -15.2740   13.5940   52.7680 C.3   181  ILE181      0.0020
     62  CD1      -16.7200   14.3950   50.9570 C.3   181  ILE181      0.0001
     63  N        -12.1150   14.4380   51.7540 N.am  182  CYS182     -0.1956
     64  CA       -10.9120   14.7540   52.5150 C.3   182  CYS182      0.1843
     65  C        -11.2130   15.7120   53.6370 C.2   182  CYS182      0.2625
     66  O        -11.3890   16.9070   53.3940 O.2   182  CYS182     -0.2714
     67  CB        -9.8290   15.4170   51.6220 C.3   182  CYS182      0.0997
     68  SG        -9.4480   14.5780   50.0270 S.3   182  CYS182     -0.0797
     69  N        -11.1520   15.1970   54.8670 N.am  183  ASP183     -0.1957
     70  CA       -11.3720   16.0330   56.0470 C.3   183  ASP183      0.1840
     71  C        -12.7740   16.6530   55.9780 C.2   183  ASP183      0.2622
     72  O        -12.9210   17.8640   56.1260 O.2   183  ASP183     -0.2715
     73  CB       -10.2860   17.1490   56.2030 C.3   183  ASP183      0.1450
     74  CG        -8.8300   16.6070   56.5790 C.2   183  ASP183      0.3671
     75  OD1       -8.6930   15.5730   57.2990 O.co2 183  ASP183     -0.2456
     76  OD2       -7.8240   17.2490   56.1480 O.co2 183  ASP183     -0.2456
     77  N        -13.7850   15.8300   55.7150 N.am  184  GLY184     -0.1954
     78  CA       -15.1720   16.3080   55.6450 C.3   184  GLY184      0.1869
     79  C        -15.5170   17.1220   54.4110 C.2   184  GLY184      0.2309
     80  O        -16.6860   17.3950   54.1820 O.2   184  GLY184     -0.2863
@<TRIPOS>BOND
     1    15    14    2
     2    14    13    1
     3    55    56    1
     4    42    41    2
     5    68    38    1
     6    68    67    1
     7    41    40    1
     8    38    37    1
     9    18    20   ar
    10    18    17   ar
    11    37    34    1
    12    13    16    1
    13    13    12    1
    14    16    17    1
    15    56    57    1
    16    56    59    1
    17    60    62    1
    18    60    59    1
    19    50    49    2
    20    20    22   ar
    21    49    48    1
    22    17    19   ar
    23    40    39    1
    24    40    43    1
    25    57    63   am
    26    57    58    2
    27    59    61    1
    28    67    64    1
    29    39    35   am
    30    63    64    1
    31    35    36    2
    32    35    34    1
    33    34    33    1
    34    47    48    1
    35    33    26   am
    36     4     3    2
    37    48    51    1
    38    22    23    1
    39    22    21   ar
    40    64    65    1
    41    19    21   ar
    42    43    44    1
    43    32    30   am
    44    26    25    1
    45    26    27    2
    46     5     6    1
    47     5     2    1
    48     6     7    1
    49    44    45    1
    50    44    46    1
    51    24    25    1
    52    25    28    1
    53     3     2    1
    54    66    65    2
    55    51    52    1
    56    65    69   am
    57     7     8    1
    58     2     1    1
    59    30    29    1
    60    30    31    2
    61    80    79    2
    62    79    78    1
    63    29    28    1
    64     8     9    2
    65    52    53    2
    66    52    54   am
    67    69    70    1
    68    78    77    1
    69     9    10    1
    70     9    11    1
    71    77    71   am
    72    71    70    1
    73    71    72    2
    74    70    73    1
    75    76    74   ar
    76    73    74    1
    77    74    75   ar
