@<TRIPOS>MOLECULE
tmp/1fupA01.pdb
 94 85 0 0 0
SMALL
GASTEIGER

@<TRIPOS>ATOM
      1  N         89.9570  158.2680   55.1870 N.3    92  THR92      -0.1218
      2  CA        89.4340  157.2520   54.2920 C.3    92  THR92       0.1862
      3  C         90.6250  156.4160   53.7970 C.2    92  THR92       0.2287
      4  O         91.6820  156.9560   53.4570 O.2    92  THR92      -0.2866
      5  CB        88.6940  157.9070   53.1100 C.3    92  THR92       0.1770
      6  OG1       88.2130  156.9000   52.2100 O.3    92  THR92      -0.2211
      7  CG2       89.6220  158.8460   52.3620 C.3    92  THR92       0.0375
      8  N         91.5330  155.0750   51.0660 N.3    94  SER94      -0.1217
      9  CA        92.1280  155.3030   49.7580 C.3    94  SER94       0.1889
     10  C         92.9940  156.5580   49.7370 C.2    94  SER94       0.2288
     11  O         93.7380  156.7780   48.7870 O.2    94  SER94      -0.2866
     12  CB        91.0330  155.4360   48.7020 C.3    94  SER94       0.2089
     13  OG        90.0350  156.3530   49.1260 O.3    94  SER94      -0.2183
     14  N         91.6890  159.5580   49.7260 N.3    96  THR96      -0.1218
     15  CA        90.8890  160.5180   48.9550 C.3    96  THR96       0.1862
     16  C         90.9330  161.9260   49.5770 C.2    96  THR96       0.2287
     17  O         91.0990  162.9250   48.8740 O.2    96  THR96      -0.2866
     18  CB        89.4190  160.0330   48.8510 C.3    96  THR96       0.1770
     19  OG1       89.3880  158.7890   48.1460 O.3    96  THR96      -0.2211
     20  CG2       88.5460  161.0470   48.1120 C.3    96  THR96       0.0375
     21  N         94.0590  163.6280   48.8360 N.3    99  ASN99      -0.1225
     22  CA        94.1350  163.9650   47.4110 C.3    99  ASN99       0.1785
     23  C         93.3530  165.2630   47.2000 C.2    99  ASN99       0.2597
     24  O         93.7990  166.1640   46.4900 O.2    99  ASN99      -0.2718
     25  CB        93.5200  162.8590   46.5430 C.3    99  ASN99       0.1169
     26  CG        93.5690  163.1810   45.0580 C.2    99  ASN99       0.2627
     27  OD1       94.6130  163.5350   44.5240 O.2    99  ASN99      -0.2716
     28  ND2       92.4460  163.0270   44.3830 N.am   99  ASN99      -0.0877
     29  N         92.1920  165.3620   47.8410 N.am  100  MET100     -0.1979
     30  CA        91.3630  166.5530   47.7320 C.3   100  MET100      0.1605
     31  C         92.0470  167.7340   48.4000 C.2   100  MET100      0.2287
     32  O         91.9420  168.8580   47.9200 O.2   100  MET100     -0.2864
     33  CB        89.9810  166.3240   48.3520 C.3   100  MET100      0.0413
     34  CG        89.0450  165.5150   47.4700 C.3   100  MET100      0.0598
     35  SD        88.9190  166.2480   45.8220 S.3   100  MET100     -0.1393
     36  CE        89.1590  164.7770   44.7680 C.3   100  MET100      0.0692
     37  N         88.7020  169.9140   41.2200 N.3   127  ASN127     -0.1240
     38  CA        88.3220  168.6840   40.5420 C.3   127  ASN127      0.1653
     39  C         88.5090  168.7460   39.0420 C.2   127  ASN127      0.2266
     40  O         89.2320  167.9290   38.4660 O.2   127  ASN127     -0.2867
     41  CB        86.8740  168.3080   40.8600 C.3   127  ASN127      0.1155
     42  CG        86.6880  167.8810   42.3020 C.2   127  ASN127      0.2627
     43  OD1       86.4920  168.7100   43.1960 O.2   127  ASN127     -0.2716
     44  ND2       86.7530  166.5740   42.5400 N.am  127  ASN127     -0.0877
     45  N         92.6970  167.8260   39.3040 N.3   131  ASN131     -0.1240
     46  CA        92.4840  166.3810   39.3340 C.3   131  ASN131      0.1653
     47  C         92.1160  165.8190   37.9640 C.2   131  ASN131      0.2266
     48  O         91.5770  164.7140   37.8670 O.2   131  ASN131     -0.2867
     49  CB        91.3880  166.0290   40.3430 C.3   131  ASN131      0.1155
     50  CG        91.4950  164.6000   40.8510 C.2   131  ASN131      0.2627
     51  OD1       92.4650  164.2470   41.5240 O.2   131  ASN131     -0.2716
     52  ND2       90.4890  163.7800   40.5520 N.am  131  ASN131     -0.0877
     53  N         92.6880  162.0730   36.4350 N.3   134  GLN134     -0.1231
     54  CA        93.1070  161.3150   37.6110 C.3   134  GLN134      0.1698
     55  C         91.9230  160.8350   38.4340 C.2   134  GLN134      0.2593
     56  O         90.7750  161.1190   38.1140 O.2   134  GLN134     -0.2718
     57  CB        93.9810  162.1980   38.5090 C.3   134  GLN134      0.0381
     58  CG        95.1930  162.7790   37.8250 C.3   134  GLN134      0.0905
     59  CD        95.6740  164.0360   38.5030 C.2   134  GLN134      0.2608
     60  OE1       95.9610  164.0390   39.6980 O.2   134  GLN134     -0.2717
     61  NE2       95.7530  165.1200   37.7450 N.am  134  GLN134     -0.0878
     62  N         92.2360  160.0960   39.4910 N.am  135  SER135     -0.1938
     63  CA        91.2570  159.5830   40.4400 C.3   135  SER135      0.2055
     64  C         92.0290  159.4330   41.7260 C.2   135  SER135      0.2644
     65  O         93.2570  159.2420   41.6980 O.2   135  SER135     -0.2714
     66  CB        90.7330  158.2100   40.0240 C.3   135  SER135      0.2130
     67  OG        90.2760  157.4970   41.1700 O.3   135  SER135     -0.2179
     68  N         91.3380  159.5490   42.8500 N.am  136  SER136     -0.1935
     69  CA        91.9860  159.3780   44.1410 C.3   136  SER136      0.2055
     70  C         92.5750  157.9610   44.1780 C.2   136  SER136      0.2643
     71  O         93.6700  157.7380   44.7110 O.2   136  SER136     -0.2714
     72  CB        90.9690  159.5490   45.2710 C.3   136  SER136      0.2130
     73  OG        90.4890  160.8770   45.3320 O.3   136  SER136     -0.2179
     74  N         91.8860  157.0400   43.5050 N.am  137  ASN137     -0.1971
     75  CA        92.2820  155.6370   43.4520 C.3   137  ASN137      0.1688
     76  C         93.6580  155.3470   42.8910 C.2   137  ASN137      0.2292
     77  O         94.3890  154.5430   43.4600 O.2   137  ASN137     -0.2864
     78  CB        91.2070  154.8050   42.7540 C.3   137  ASN137      0.1181
     79  CG        89.8970  154.8280   43.5160 C.2   137  ASN137      0.2629
     80  OD1       89.8270  155.4120   44.6000 O.2   137  ASN137     -0.2716
     81  ND2       88.8550  154.2290   42.9590 N.am  137  ASN137     -0.0877
     82  N         89.9510  154.7930   38.1530 N.3   227  ALA227     -0.1245
     83  CA        89.1280  154.1960   39.2070 C.3   227  ALA227      0.1562
     84  C         89.2790  152.7120   39.5810 C.2   227  ALA227      0.2260
     85  O         89.3210  152.3840   40.7700 O.2   227  ALA227     -0.2867
     86  CB        87.6630  154.5180   38.9480 C.3   227  ALA227      0.0290
     87  N         90.2060  147.5390   45.0210 N.3   354  LEU354     -0.1245
     88  CA        91.0100  148.5160   45.7420 C.3   354  LEU354      0.1561
     89  C         91.3990  148.1580   47.1750 C.2   354  LEU354      0.2260
     90  O         90.5730  147.7080   47.9700 O.2   354  LEU354     -0.2867
     91  CB        90.2690  149.8620   45.7450 C.3   354  LEU354      0.0270
     92  CG        90.9880  151.1220   46.2370 C.3   354  LEU354      0.0019
     93  CD1       92.0410  151.5450   45.2170 C.3   354  LEU354      0.0001
     94  CD2       89.9700  152.2430   46.4300 C.3   354  LEU354      0.0001
@<TRIPOS>BOND
     1    53    54    1
     2    54    55    1
     3    54    57    1
     4    61    59   am
     5    58    59    1
     6    58    57    1
     7    48    47    2
     8    47    46    1
     9    56    55    2
    10    82    83    1
    11    55    62   am
    12    40    39    2
    13    59    60    2
    14    86    83    1
    15    39    38    1
    16    83    84    1
    17    45    46    1
    18    46    49    1
    19    62    63    1
    20    84    85    2
    21    66    63    1
    22    66    67    1
    23    49    50    1
    24    63    64    1
    25    38    41    1
    26    38    37    1
    27    52    50   am
    28    50    51    2
    29    41    42    1
    30    65    64    2
    31    64    68   am
    32    42    44   am
    33    42    43    2
    34    78    75    1
    35    78    79    1
    36    68    69    1
    37    76    75    1
    38    76    77    2
    39    81    79   am
    40    75    74    1
    41    74    70   am
    42    79    80    2
    43    69    70    1
    44    69    72    1
    45    70    71    2
    46    28    26   am
    47    27    26    2
    48    36    35    1
    49    87    88    1
    50    26    25    1
    51    93    92    1
    52    72    73    1
    53    88    91    1
    54    88    89    1
    55    91    92    1
    56    35    34    1
    57    92    94    1
    58    24    23    2
    59    25    22    1
    60    89    90    2
    61    23    22    1
    62    23    29   am
    63    22    21    1
    64    34    33    1
    65    30    29    1
    66    30    33    1
    67    30    31    1
    68    32    31    2
    69    20    18    1
    70    19    18    1
    71    12    13    1
    72    12     9    1
    73    11    10    2
    74    18    15    1
    75    17    16    2
    76    15    16    1
    77    15    14    1
    78    10     9    1
    79     9     8    1
    80     6     5    1
    81     7     5    1
    82     5     2    1
    83     4     3    2
    84     3     2    1
    85     2     1    1
