@<TRIPOS>MOLECULE
tmp/1futA00.pdb
 135 135 0 0 0
SMALL
GASTEIGER

@<TRIPOS>ATOM
      1  N         -6.5320    8.7390    6.9460 N.3    37  TYR37      -0.1241
      2  CA        -7.4590    9.0850    7.9910 C.3    37  TYR37       0.1605
      3  C         -8.5790    8.0320    8.1220 C.2    37  TYR37       0.2264
      4  O         -9.0300    7.6210    7.0630 O.2    37  TYR37      -0.2867
      5  CB        -8.1780   10.4240    7.7750 C.3    37  TYR37       0.0534
      6  CG        -7.2330   11.5840    7.7850 C.ar   37  TYR37      -0.0201
      7  CD1       -6.5870   12.0130    8.9400 C.ar   37  TYR37      -0.0009
      8  CD2       -6.9440   12.2170    6.5760 C.ar   37  TYR37      -0.0009
      9  CE1       -5.7260   13.1140    8.8700 C.ar   37  TYR37       0.0417
     10  CE2       -6.1140   13.3350    6.5000 C.ar   37  TYR37       0.0417
     11  CZ        -5.5170   13.8240    7.6550 C.ar   37  TYR37       0.1957
     12  OH        -4.6320   14.8540    7.5560 O.3    37  TYR37      -0.2866
     13  N         -6.2300    8.3560   11.6500 N.3    39  HIS39      -0.1226
     14  CA        -4.9190    7.8110   12.0430 C.3    39  HIS39       0.1752
     15  C         -4.6900    8.3650   13.4350 C.2    39  HIS39       0.2597
     16  O         -5.3080    9.3530   13.8670 O.2    39  HIS39      -0.2718
     17  CB        -3.7460    8.1870   11.1160 C.3    39  HIS39       0.0759
     18  CG        -3.3850    9.6370   10.9950 C.ar   39  HIS39       0.0818
     19  ND1       -2.7470   10.4100   11.9360 N.ar   39  HIS39      -0.2268
     20  CD2       -3.6160   10.5030    9.9650 C.ar   39  HIS39       0.1154
     21  CE1       -2.6320   11.6300   11.4900 C.ar   39  HIS39       0.1986
     22  NE2       -3.1310   11.7220   10.2820 N.ar   39  HIS39      -0.2212
     23  N         -3.7170    7.7980   14.1090 N.am   40  THR40      -0.1939
     24  CA        -3.3490    8.2380   15.4370 C.3    40  THR40       0.2028
     25  C         -3.0290    9.7280   15.4590 C.2    40  THR40       0.2642
     26  O         -2.2610   10.2240   14.6420 O.2    40  THR40      -0.2714
     27  CB        -2.0130    7.5140   15.9770 C.3    40  THR40       0.1808
     28  OG1       -2.3440    6.1490   16.0520 O.3    40  THR40      -0.2208
     29  CG2       -1.4410    8.0840   17.2920 C.3    40  THR40       0.0379
     30  N         -3.5600   10.3320   16.5030 N.am   41  TYR41      -0.1959
     31  CA        -3.3910   11.7010   16.9000 C.3    41  TYR41       0.1771
     32  C         -2.5450   11.6530   18.1940 C.2    41  TYR41       0.2620
     33  O         -3.0220   11.2300   19.2780 O.2    41  TYR41      -0.2715
     34  CB        -4.7010   12.4460   17.0880 C.3    41  TYR41       0.0574
     35  CG        -4.3090   13.8690   17.4880 C.ar   41  TYR41      -0.0198
     36  CD1       -4.5760   14.3050   18.8090 C.ar   41  TYR41      -0.0009
     37  CD2       -3.6800   14.7250   16.6000 C.ar   41  TYR41      -0.0009
     38  CE1       -4.2290   15.5700   19.2130 C.ar   41  TYR41       0.0417
     39  CE2       -3.3440   16.0010   16.9840 C.ar   41  TYR41       0.0417
     40  CZ        -3.6080   16.4320   18.3010 C.ar   41  TYR41       0.1957
     41  OH        -3.2330   17.6990   18.6770 O.3    41  TYR41      -0.2866
     42  N         -1.3050   12.0520   18.1140 N.am   42  ASN42      -0.1958
     43  CA        -0.4300   12.0260   19.2400 C.3    42  ASN42       0.1819
     44  C         -0.6850   13.0460   20.3230 C.2    42  ASN42       0.2621
     45  O         -0.0780   12.7210   21.4060 O.2    42  ASN42      -0.2715
     46  CB         1.0510   12.0890   18.8830 C.3    42  ASN42       0.1195
     47  CG         1.4300   10.8630   18.0920 C.2    42  ASN42       0.2630
     48  OD1        1.9980   11.1220   17.0270 O.2    42  ASN42      -0.2716
     49  ND2        1.1770    9.6280   18.4160 N.am   42  ASN42      -0.0877
     50  N         -1.3700   14.1100   20.1850 N.am   43  ASN43      -0.1958
     51  CA        -1.5770   15.1200   21.1820 C.3    43  ASN43       0.1819
     52  C         -0.2340   15.7490   21.5390 C.2    43  ASN43       0.2621
     53  O         -0.0010   15.8990   22.7320 O.2    43  ASN43      -0.2715
     54  CB        -2.3370   14.6960   22.4440 C.3    43  ASN43       0.1195
     55  CG        -3.0250   15.8570   23.1520 C.2    43  ASN43       0.2630
     56  OD1       -3.0680   17.0090   22.7460 O.2    43  ASN43      -0.2716
     57  ND2       -3.6720   15.4600   24.2550 N.am   43  ASN43      -0.0877
     58  N          0.5860   16.0830   20.5980 N.am   44  TYR44      -0.1960
     59  CA         1.8560   16.7290   20.9260 C.3    44  TYR44       0.1771
     60  C          1.5610   18.0790   21.5580 C.2    44  TYR44       0.2619
     61  O          2.4520   18.5730   22.2310 O.2    44  TYR44      -0.2715
     62  CB         2.7480   17.0350   19.6860 C.3    44  TYR44       0.0574
     63  CG         3.2250   15.7620   19.0080 C.ar   44  TYR44      -0.0198
     64  CD1        3.1040   15.5250   17.6250 C.ar   44  TYR44      -0.0009
     65  CD2        3.7500   14.7550   19.8040 C.ar   44  TYR44      -0.0009
     66  CE1        3.5540   14.3290   17.0460 C.ar   44  TYR44       0.0417
     67  CE2        4.1880   13.5480   19.2580 C.ar   44  TYR44       0.0417
     68  CZ         4.1120   13.3710   17.8730 C.ar   44  TYR44       0.1957
     69  OH         4.5740   12.1550   17.4510 O.3    44  TYR44      -0.2866
     70  N          0.4480   18.6840   21.2820 N.am   45  GLU45      -0.1977
     71  CA         0.1090   20.0340   21.7690 C.3    45  GLU45       0.1602
     72  C         -0.3220   20.1270   23.2210 C.2    45  GLU45       0.2287
     73  O         -0.4540   21.2320   23.8170 O.2    45  GLU45      -0.2864
     74  CB        -1.0640   20.5740   20.9050 C.3    45  GLU45       0.0415
     75  CG        -0.8630   20.8020   19.4400 C.3    45  GLU45       0.1163
     76  CD        -0.5640   19.7880   18.3750 C.2    45  GLU45       0.3649
     77  OE1       -0.7720   18.5670   18.3790 O.co2  45  GLU45      -0.2457
     78  OE2       -0.1150   20.3170   17.3560 O.co2  45  GLU45      -0.2457
     79  N         -7.3890   11.1630   14.8540 N.3    57  GLU57      -0.1196
     80  CA        -7.8430   12.4390   14.2340 C.3    57  GLU57       0.1783
     81  C         -8.5220   12.1470   12.8720 C.2    57  GLU57       0.2306
     82  O         -8.2550   11.1790   12.1440 O.2    57  GLU57      -0.2863
     83  CB        -6.7540   13.4580   14.0030 C.2    57  GLU57       0.0071
     84  CG        -5.5630   13.1080   13.1040 C.2    57  GLU57       0.0834
     85  CD        -4.7250   14.2620   12.6050 C.2    57  GLU57       0.3877
     86  OE1       -3.5220   14.4770   12.8760 O.co2  57  GLU57      -0.2406
     87  OE2       -5.4340   15.0280   11.9100 O.co2  57  GLU57      -0.2406
     88  N        -10.2040   19.2310   12.1560 N.3    75  ARG75      -0.1245
     89  CA       -10.2170   17.8280   12.5680 C.3    75  ARG75       0.1563
     90  C        -11.0650   17.5290   13.7940 C.2    75  ARG75       0.2260
     91  O        -11.2350   18.3990   14.6190 O.2    75  ARG75      -0.2867
     92  CB        -8.7900   17.3650   12.9530 C.3    75  ARG75       0.0307
     93  CG        -7.7060   17.5180   11.9390 C.3    75  ARG75       0.0489
     94  CD        -7.7480   16.4430   10.8390 C.3    75  ARG75       0.2205
     95  NE        -6.6550   16.7750    9.9320 N.pl3  75  ARG75      -0.0865
     96  CZ        -6.4850   17.8080    9.1270 C.cat  75  ARG75       0.5346
     97  NH1       -7.3010   18.7970    8.8350 N.pl3  75  ARG75       0.1354
     98  NH2       -5.2000   17.9780    8.7220 N.pl3  75  ARG75       0.1354
     99  N         -5.8730   23.8650   12.2460 N.3    90  HIS90      -0.1241
    100  CA        -4.5750   24.4950   11.8960 C.3    90  HIS90       0.1621
    101  C         -4.8060   26.0240   11.8260 C.2    90  HIS90       0.2264
    102  O         -3.8180   26.7780   11.9350 O.2    90  HIS90      -0.2867
    103  CB        -4.0510   24.0090   10.5530 C.3    90  HIS90       0.0745
    104  CG        -3.4830   22.6440   10.5930 C.ar   90  HIS90       0.0817
    105  ND1       -2.3680   22.3050   11.3170 N.ar   90  HIS90      -0.2268
    106  CD2       -3.9070   21.5260    9.9810 C.ar   90  HIS90       0.1154
    107  CE1       -2.0720   21.0420   11.1300 C.ar   90  HIS90       0.1986
    108  NE2       -2.9900   20.5530   10.3270 N.ar   90  HIS90      -0.2212
    109  N          2.7850   23.0240   11.5500 N.3    96  ASN96      -0.1225
    110  CA         1.8530   21.8990   11.5090 C.3    96  ASN96       0.1785
    111  C          1.1620   21.6710   12.8390 C.2    96  ASN96       0.2597
    112  O          0.6530   20.5540   13.0580 O.2    96  ASN96      -0.2718
    113  CB         2.5770   20.6680   10.9210 C.3    96  ASN96       0.1169
    114  CG         2.4350   20.8290    9.3840 C.2    96  ASN96       0.2627
    115  OD1        3.4050   21.2970    8.7560 O.2    96  ASN96      -0.2716
    116  ND2        1.1650   20.4660    9.0430 N.am   96  ASN96      -0.0877
    117  N          1.1700   22.7380   13.5980 N.am   97  ASN97      -0.1960
    118  CA         0.5480   22.7560   14.9050 C.3    97  ASN97       0.1819
    119  C         -0.9710   22.9420   14.7710 C.2    97  ASN97       0.2621
    120  O         -1.4820   23.5780   13.8440 O.2    97  ASN97      -0.2715
    121  CB         1.0890   23.9470   15.6910 C.3    97  ASN97       0.1195
    122  CG         2.5430   23.9950   16.0370 C.2    97  ASN97       0.2630
    123  OD1        3.2670   23.0120   16.1180 O.2    97  ASN97      -0.2716
    124  ND2        3.0120   25.2360   16.3010 N.am   97  ASN97      -0.0877
    125  N         -1.6270   22.4950   15.8410 N.am   98  PHE98      -0.1974
    126  CA        -3.0950   22.6610   15.9160 C.3    98  PHE98       0.1639
    127  C         -3.4460   23.5540   17.1120 C.2    98  PHE98       0.2290
    128  O         -2.6500   23.5410   18.0170 O.2    98  PHE98      -0.2864
    129  CB        -3.7610   21.3190   16.0670 C.3    98  PHE98       0.0560
    130  CG        -3.7620   20.3750   14.8960 C.ar   98  PHE98      -0.0200
    131  CD1       -4.7760   20.4790   13.9180 C.ar   98  PHE98      -0.0042
    132  CD2       -2.8280   19.3430   14.8680 C.ar   98  PHE98      -0.0042
    133  CE1       -4.7750   19.5230   12.8970 C.ar   98  PHE98      -0.0003
    134  CE2       -2.8600   18.3800   13.8590 C.ar   98  PHE98      -0.0003
    135  CZ        -3.8540   18.4840   12.8790 C.ar   98  PHE98      -0.0000
@<TRIPOS>BOND
     1    10     8   ar
     2    10    11   ar
     3     8     6   ar
     4     1     2    1
     5     4     3    2
     6    12    11    1
     7    11     9   ar
     8     5     6    1
     9     5     2    1
    10     6     7   ar
    11     2     3    1
    12    98    96    1
    13   115   114    2
    14    97    96    1
    15     9     7   ar
    16   116   114   am
    17    96    95    2
    18   114   113    1
    19    95    94    1
    20    20    22   ar
    21    20    18   ar
    22   106   108   ar
    23   106   104   ar
    24    22    21   ar
    25   108   107   ar
    26   103   104    1
    27   103   100    1
    28   104   105   ar
    29    94    93    1
    30   113   110    1
    31    18    17    1
    32    18    19   ar
    33    17    14    1
    34   107   105   ar
    35    21    19   ar
    36   110   109    1
    37   110   111    1
    38    13    14    1
    39   101   100    1
    40   101   102    2
    41   100    99    1
    42    87    85   ar
    43    93    92    1
    44    14    15    1
    45    82    81    2
    46    88    89    1
    47    89    92    1
    48    89    90    1
    49    85    86   ar
    50    85    84    1
    51   111   112    2
    52   111   117   am
    53    81    80    1
    54   135   133   ar
    55   135   134   ar
    56   133   131   ar
    57    84    83    2
    58    15    16    2
    59    15    23   am
    60   117   118    1
    61    90    91    2
    62   120   119    2
    63   134   132   ar
    64   131   130   ar
    65    83    80    1
    66    23    24    1
    67    80    79    1
    68    26    25    2
    69   119   118    1
    70   119   125   am
    71   132   130   ar
    72   130   129    1
    73   118   121    1
    74    24    25    1
    75    24    27    1
    76    25    30   am
    77   121   122    1
    78   125   126    1
    79   126   129    1
    80   126   127    1
    81    27    28    1
    82    27    29    1
    83   122   123    2
    84   122   124   am
    85    30    31    1
    86    37    39   ar
    87    37    35   ar
    88    31    34    1
    89    31    32    1
    90    39    40   ar
    91    48    47    2
    92    66    64   ar
    93    66    68   ar
    94    34    35    1
    95   127   128    2
    96    78    76   ar
    97    69    68    1
    98    35    36   ar
    99    64    63   ar
   100    68    67   ar
   101    47    49   am
   102    47    46    1
   103    42    32   am
   104    42    43    1
   105    32    33    2
   106    40    41    1
   107    40    38   ar
   108    76    77   ar
   109    76    75    1
   110    36    38   ar
   111    46    43    1
   112    63    62    1
   113    63    65   ar
   114    43    44    1
   115    67    65   ar
   116    75    74    1
   117    62    59    1
   118    50    44   am
   119    50    51    1
   120    44    45    2
   121    58    59    1
   122    58    52   am
   123    74    71    1
   124    59    60    1
   125    51    52    1
   126    51    54    1
   127    70    60   am
   128    70    71    1
   129    52    53    2
   130    60    61    2
   131    71    72    1
   132    54    55    1
   133    56    55    2
   134    55    57   am
   135    72    73    2
