@<TRIPOS>MOLECULE
tmp/1fv0A00.pdb
 148 144 0 0 0
SMALL
GASTEIGER

@<TRIPOS>ATOM
      1  N         16.1800   15.9220   40.0340 N.3     2  LEU2       -0.1245
      2  CA        15.1450   16.9440   40.0050 C.3     2  LEU2        0.1561
      3  C         13.8560   16.4080   39.4000 C.2     2  LEU2        0.2260
      4  O         12.7750   16.9250   39.6680 O.2     2  LEU2       -0.2867
      5  CB        15.6210   18.1710   39.2180 C.3     2  LEU2        0.0270
      6  CG        16.6290   19.0630   39.9440 C.3     2  LEU2        0.0019
      7  CD1       16.0160   19.5000   41.2670 C.3     2  LEU2        0.0001
      8  CD2       17.9380   18.3180   40.1800 C.3     2  LEU2        0.0001
      9  N         12.0450   14.6700   42.3540 N.3     5  PHE5       -0.1227
     10  CA        11.7100   15.7120   43.3250 C.3     5  PHE5        0.1736
     11  C         10.5850   16.5960   42.7840 C.2     5  PHE5        0.2596
     12  O          9.6420   16.9260   43.5050 O.2     5  PHE5       -0.2718
     13  CB        12.9670   16.5370   43.6400 C.3     5  PHE5        0.0547
     14  CG        12.7840   17.5630   44.7330 C.ar    5  PHE5       -0.0202
     15  CD1       11.9470   17.3160   45.8160 C.ar    5  PHE5       -0.0042
     16  CD2       13.4890   18.7640   44.6930 C.ar    5  PHE5       -0.0042
     17  CE1       11.8140   18.2550   46.8510 C.ar    5  PHE5       -0.0003
     18  CE2       13.3670   19.7080   45.7170 C.ar    5  PHE5       -0.0003
     19  CZ        12.5250   19.4490   46.7990 C.ar    5  PHE5       -0.0000
     20  N         10.6800   16.9610   41.5090 N.am    6  GLY6       -0.1957
     21  CA         9.6500   17.7830   40.9000 C.3     6  GLY6        0.1869
     22  C          8.3110   17.0720   40.8930 C.2     6  GLY6        0.2309
     23  O          7.2640   17.6960   41.0540 O.2     6  GLY6       -0.2863
     24  N          6.8230   17.2130   44.4120 N.3     9  ILE9       -0.1245
     25  CA         6.3340   18.5560   44.6800 C.3     9  ILE9        0.1561
     26  C          4.9640   18.7830   44.0550 C.2     9  ILE9        0.2260
     27  O          4.0540   19.2890   44.7090 O.2     9  ILE9       -0.2867
     28  CB         7.3280   19.6150   44.1650 C.3     9  ILE9        0.0252
     29  CG1        8.6420   19.4970   44.9450 C.3     9  ILE9        0.0019
     30  CG2        6.7440   21.0110   44.3360 C.3     9  ILE9        0.0019
     31  CD1        9.7410   20.4060   44.4470 C.3     9  ILE9        0.0001
     32  N          6.6030   22.1960   40.1780 N.3    17  ALA17      -0.1231
     33  CA         7.8250   22.5340   40.9010 C.3    17  ALA17       0.1694
     34  C          8.4810   23.7690   40.2880 C.2    17  ALA17       0.2591
     35  O          8.8840   24.6940   40.9950 O.2    17  ALA17      -0.2718
     36  CB         8.7840   21.3500   40.8710 C.3    17  ALA17       0.0304
     37  N          8.5770   23.7760   38.9630 N.am   18  ILE18      -0.1980
     38  CA         9.1580   24.8930   38.2340 C.3    18  ILE18       0.1595
     39  C          7.9950   25.5960   37.5420 C.2    18  ILE18       0.2287
     40  O          7.1960   24.9510   36.8630 O.2    18  ILE18      -0.2864
     41  CB        10.1440   24.4020   37.1570 C.3    18  ILE18       0.0276
     42  CG1       11.1410   23.4320   37.7840 C.3    18  ILE18       0.0022
     43  CG2       10.8720   25.5820   36.5310 C.3    18  ILE18       0.0022
     44  CD1       12.1290   22.8200   36.8070 C.3    18  ILE18       0.0001
     45  N          8.7630   26.7640   42.7590 N.3    21  TYR21      -0.1227
     46  CA         9.7550   26.5900   43.8150 C.3    21  TYR21       0.1736
     47  C         11.2040   26.6230   43.3420 C.2    21  TYR21       0.2596
     48  O         12.1080   26.2900   44.1080 O.2    21  TYR21      -0.2718
     49  CB         9.4970   25.2720   44.5490 C.3    21  TYR21       0.0548
     50  CG         8.2070   25.2320   45.3350 C.ar   21  TYR21      -0.0200
     51  CD1        8.1250   25.8170   46.5970 C.ar   21  TYR21      -0.0009
     52  CD2        7.0710   24.6050   44.8230 C.ar   21  TYR21      -0.0009
     53  CE1        6.9410   25.7790   47.3320 C.ar   21  TYR21       0.0417
     54  CE2        5.8800   24.5610   45.5500 C.ar   21  TYR21       0.0417
     55  CZ         5.8240   25.1510   46.8060 C.ar   21  TYR21       0.1957
     56  OH         4.6520   25.1090   47.5360 O.3    21  TYR21      -0.2866
     57  N         11.4330   27.0300   42.0950 N.am   22  SER22      -0.1952
     58  CA        12.7940   27.0760   41.5620 C.3    22  SER22       0.1924
     59  C         13.5000   28.4330   41.6570 C.2    22  SER22       0.2314
     60  O         14.6840   28.5420   41.3320 O.2    22  SER22      -0.2863
     61  CB        12.7940   26.5960   40.1030 C.3    22  SER22       0.2116
     62  OG        11.8580   27.3270   39.3380 O.3    22  SER22      -0.2180
     63  N         16.7480   30.2690   49.2650 N.3    27  TYR27      -0.1241
     64  CA        17.2260   28.9020   49.1330 C.3    27  TYR27       0.1605
     65  C         16.5330   27.9700   48.1510 C.2    27  TYR27       0.2264
     66  O         17.0540   26.8950   47.8630 O.2    27  TYR27      -0.2867
     67  CB        17.2500   28.2380   50.5130 C.3    27  TYR27       0.0534
     68  CG        18.2750   28.8460   51.4400 C.ar   27  TYR27      -0.0201
     69  CD1       17.9640   29.9490   52.2370 C.ar   27  TYR27      -0.0009
     70  CD2       19.5770   28.3490   51.4810 C.ar   27  TYR27      -0.0009
     71  CE1       18.9280   30.5410   53.0480 C.ar   27  TYR27       0.0417
     72  CE2       20.5460   28.9330   52.2830 C.ar   27  TYR27       0.0417
     73  CZ        20.2170   30.0280   53.0610 C.ar   27  TYR27       0.1957
     74  OH        21.1870   30.6180   53.8310 O.3    27  TYR27      -0.2866
     75  N         16.2380   27.0830   44.9370 N.3    29  GLY29      -0.1210
     76  CA        16.8750   27.2690   43.6460 C.3    29  GLY29       0.1956
     77  C         18.3230   26.8460   43.8010 C.2    29  GLY29       0.2611
     78  O         18.6360   26.0570   44.6910 O.2    29  GLY29      -0.2717
     79  N         19.2120   27.3590   42.9560 N.am   30  TRP30      -0.1976
     80  CA        20.6220   26.9980   43.0590 C.3    30  TRP30       0.1640
     81  C         21.2910   27.6890   44.2420 C.2    30  TRP30       0.2290
     82  O         22.1200   27.0970   44.9310 O.2    30  TRP30      -0.2864
     83  CB        21.3820   27.3710   41.7840 C.3    30  TRP30       0.0576
     84  CG        20.9200   26.6730   40.5440 C.ar   30  TRP30       0.0006
     85  CD1       19.9340   27.0820   39.6910 C.ar   30  TRP30       0.0946
     86  CD2       21.4590   25.4650   39.9870 C.ar   30  TRP30       0.0152
     87  NE1       19.8310   26.2080   38.6330 N.ar   30  TRP30      -0.2442
     88  CE2       20.7560   25.2070   38.7890 C.ar   30  TRP30       0.0810
     89  CE3       22.4710   24.5780   40.3830 C.ar   30  TRP30       0.0012
     90  CZ2       21.0310   24.0980   37.9810 C.ar   30  TRP30       0.0191
     91  CZ3       22.7470   23.4720   39.5760 C.ar   30  TRP30       0.0001
     92  CH2       22.0270   23.2440   38.3890 C.ar   30  TRP30       0.0015
     93  N         13.4730   24.7960   51.9050 N.3    44  CYS44      -0.1235
     94  CA        14.5770   24.6410   50.9680 C.3    44  CYS44       0.1677
     95  C         15.9250   24.6690   51.6670 C.2    44  CYS44       0.2270
     96  O         16.8460   23.9570   51.2680 O.2    44  CYS44      -0.2867
     97  CB        14.5120   25.7130   49.8800 C.3    44  CYS44       0.0956
     98  SG        13.0020   25.5160   48.8820 S.3    44  CYS44      -0.0801
     99  N         16.3660   21.3650   53.0740 N.3    47  HIS47      -0.1226
    100  CA        16.5920   20.4340   51.9720 C.3    47  HIS47       0.1752
    101  C         18.0520   20.5000   51.5380 C.2    47  HIS47       0.2596
    102  O         18.6620   19.4770   51.2350 O.2    47  HIS47      -0.2718
    103  CB        15.6760   20.7840   50.7970 C.3    47  HIS47       0.0759
    104  CG        15.7240   19.7950   49.6740 C.ar   47  HIS47       0.0818
    105  ND1       16.1710   20.1250   48.4130 N.ar   47  HIS47      -0.2268
    106  CD2       15.3680   18.4880   49.6180 C.ar   47  HIS47       0.1154
    107  CE1       16.0890   19.0650   47.6270 C.ar   47  HIS47       0.1986
    108  NE2       15.6050   18.0580   48.3340 N.ar   47  HIS47      -0.2212
    109  N         18.6060   21.7120   51.5100 N.am   48  ASP48      -0.1974
    110  CA        20.0050   21.9040   51.1320 C.3    48  ASP48       0.1709
    111  C         20.9270   21.2550   52.1470 C.2    48  ASP48       0.2293
    112  O         21.9280   20.6330   51.7890 O.2    48  ASP48      -0.2864
    113  CB        20.3360   23.3910   51.0250 C.3    48  ASP48       0.1436
    114  CG        19.8340   23.9960   49.7430 C.2    48  ASP48       0.3671
    115  OD1       19.4500   23.2100   48.8660 O.co2  48  ASP48      -0.2456
    116  OD2       19.8300   25.2380   49.6040 O.co2  48  ASP48      -0.2456
    117  N         20.8750   17.5180   51.5770 N.3    51  TYR51      -0.1241
    118  CA        21.7100   17.1660   50.4290 C.3    51  TYR51       0.1605
    119  C         23.1830   17.3100   50.7900 C.2    51  TYR51       0.2264
    120  O         24.0160   16.4930   50.3910 O.2    51  TYR51      -0.2867
    121  CB        21.4160   18.0940   49.2490 C.3    51  TYR51       0.0534
    122  CG        20.3220   17.6500   48.3070 C.ar   51  TYR51      -0.0201
    123  CD1       19.4320   16.6280   48.6460 C.ar   51  TYR51      -0.0009
    124  CD2       20.1660   18.2740   47.0690 C.ar   51  TYR51      -0.0009
    125  CE1       18.4140   16.2430   47.7670 C.ar   51  TYR51       0.0417
    126  CE2       19.1590   17.8990   46.1930 C.ar   51  TYR51       0.0417
    127  CZ        18.2860   16.8870   46.5430 C.ar   51  TYR51       0.1957
    128  OH        17.2900   16.5290   45.6610 O.3    51  TYR51      -0.2866
    129  N         21.2570   15.7670   42.9420 N.3    60  LYS60      -0.1245
    130  CA        20.5280   16.3600   41.8310 C.3    60  LYS60       0.1561
    131  C         20.4980   15.5230   40.5560 C.2    60  LYS60       0.2260
    132  O         19.6130   15.7050   39.7200 O.2    60  LYS60      -0.2867
    133  CB        21.0820   17.7560   41.5210 C.3    60  LYS60       0.0271
    134  CG        20.8170   18.7790   42.6210 C.3    60  LYS60       0.0035
    135  CD        21.1780   20.1970   42.1920 C.3    60  LYS60       0.0206
    136  CE        22.6670   20.3410   41.9210 C.3    60  LYS60       0.1093
    137  NZ        23.4820   19.9750   43.1140 N.3    60  LYS60      -0.1314
    138  N          6.7950   21.7450   51.9460 N.3    96  PHE96      -0.1241
    139  CA         6.1890   22.7470   51.0660 C.3    96  PHE96       0.1605
    140  C          4.6710   22.7980   51.2240 C.2    96  PHE96       0.2264
    141  O          4.0940   23.8690   51.4070 O.2    96  PHE96      -0.2867
    142  CB         6.4760   22.4650   49.5840 C.3    96  PHE96       0.0534
    143  CG         7.9030   22.7020   49.1650 C.ar   96  PHE96      -0.0203
    144  CD1        8.7080   23.6170   49.8330 C.ar   96  PHE96      -0.0042
    145  CD2        8.4280   22.0220   48.0680 C.ar   96  PHE96      -0.0042
    146  CE1       10.0160   23.8530   49.4190 C.ar   96  PHE96      -0.0003
    147  CE2        9.7370   22.2530   47.6460 C.ar   96  PHE96      -0.0003
    148  CZ        10.5310   23.1710   48.3240 C.ar   96  PHE96      -0.0000
@<TRIPOS>BOND
     1    43    41    1
     2    44    42    1
     3    40    39    2
     4    41    42    1
     5    41    38    1
     6    39    38    1
     7    90    92   ar
     8    90    88   ar
     9    38    37    1
    10    92    91   ar
    11    87    88   ar
    12    87    85   ar
    13    88    86   ar
    14    37    34   am
    15     5     6    1
    16     5     2    1
    17    62    61    1
    18     3     4    2
    19     3     2    1
    20    91    89   ar
    21    85    84   ar
    22   132   131    2
    23     6     8    1
    24     6     7    1
    25    86    89   ar
    26    86    84   ar
    27     2     1    1
    28    61    58    1
    29    32    33    1
    30    34    33    1
    31    34    35    2
    32    84    83    1
    33   131   130    1
    34    36    33    1
    35    22    21    1
    36    22    23    2
    37    21    20    1
    38    60    59    2
    39    20    11   am
    40   133   130    1
    41   133   134    1
    42    58    59    1
    43    58    57    1
    44    83    80    1
    45   130   129    1
    46   136   135    1
    47   136   137    1
    48    57    47   am
    49   135   134    1
    50     9    10    1
    51    45    46    1
    52    11    10    1
    53    11    12    2
    54    79    80    1
    55    79    77   am
    56    80    81    1
    57    10    13    1
    58    47    46    1
    59    47    48    2
    60    13    14    1
    61    76    77    1
    62    76    75    1
    63    77    78    2
    64    46    49    1
    65    26    25    1
    66    26    27    2
    67    28    30    1
    68    28    25    1
    69    28    29    1
    70    81    82    2
    71    24    25    1
    72    31    29    1
    73    49    50    1
    74    16    14   ar
    75    16    18   ar
    76    14    15   ar
    77    52    50   ar
    78    52    54   ar
    79    50    51   ar
    80    54    55   ar
    81   128   127    1
    82    18    19   ar
    83    15    17   ar
    84   126   127   ar
    85   126   124   ar
    86   127   125   ar
    87    51    53   ar
    88    19    17   ar
    89    55    53   ar
    90    55    56    1
    91   124   122   ar
    92   107   108   ar
    93   107   105   ar
    94   147   145   ar
    95   147   148   ar
    96   125   123   ar
    97    66    65    2
    98   145   143   ar
    99    65    64    1
   100   122   123   ar
   101   122   121    1
   102   148   146   ar
   103   108   106   ar
   104   105   104   ar
   105   115   114   ar
   106    98    97    1
   107    64    63    1
   108    64    67    1
   109   143   142    1
   110   143   144   ar
   111   121   118    1
   112   146   144   ar
   113   142   139    1
   114   116   114   ar
   115   106   104   ar
   116   104   103    1
   117   114   113    1
   118    97    94    1
   119   120   119    2
   120   118   119    1
   121   118   117    1
   122    67    68    1
   123   103   100    1
   124    94    95    1
   125    94    93    1
   126   113   110    1
   127   139   140    1
   128   139   138    1
   129   110   109    1
   130   110   111    1
   131   140   141    2
   132   102   101    2
   133    96    95    2
   134    68    70   ar
   135    68    69   ar
   136    70    72   ar
   137   109   101   am
   138   101   100    1
   139   112   111    2
   140   100    99    1
   141    69    71   ar
   142    72    73   ar
   143    71    73   ar
   144    73    74    1
