@<TRIPOS>MOLECULE
tmp/1fv9A00.pdb
 110 109 0 0 0
SMALL
GASTEIGER

@<TRIPOS>ATOM
      1  N         23.0490    8.8450   24.9260 N.3    46  HIS46      -0.1241
      2  CA        24.0970    9.3500   25.7700 C.3    46  HIS46       0.1621
      3  C         24.2770    8.4230   26.9610 C.2    46  HIS46       0.2264
      4  O         25.3900    8.1560   27.3840 O.2    46  HIS46      -0.2867
      5  CB        23.8110   10.8270   26.1740 C.3    46  HIS46       0.0745
      6  CG        23.2690   11.0310   27.5670 C.ar   46  HIS46       0.0817
      7  ND1       22.0230   11.5880   27.7960 N.ar   46  HIS46      -0.2268
      8  CD2       23.8100   10.7900   28.7870 C.ar   46  HIS46       0.1154
      9  CE1       21.8230   11.6650   29.1040 C.ar   46  HIS46       0.1986
     10  NE2       22.8890   11.1880   29.7210 N.ar   46  HIS46      -0.2212
     11  N         12.9710   20.4260   39.0640 N.3   192  ASP192     -0.1225
     12  CA        13.6590   20.1780   37.7560 C.3   192  ASP192      0.1805
     13  C         14.2420   18.7990   37.6870 C.2   192  ASP192      0.2598
     14  O         14.2760   18.0770   38.6930 O.2   192  ASP192     -0.2718
     15  CB        14.8070   21.1830   37.5420 C.3   192  ASP192      0.1424
     16  CG        15.2620   21.6620   36.1140 C.2   192  ASP192      0.3668
     17  OD1       14.9620   20.8840   35.1750 O.co2 192  ASP192     -0.2456
     18  OD2       15.9070   22.7470   35.9760 O.co2 192  ASP192     -0.2456
     19  N         14.8330   18.4660   36.5650 N.am  193  SER193     -0.1938
     20  CA        15.4880   17.1820   36.5360 C.3   193  SER193      0.2055
     21  C         16.9600   17.3660   36.9740 C.2   193  SER193      0.2643
     22  O         17.2810   18.2650   37.7610 O.2   193  SER193     -0.2714
     23  CB        15.3960   16.5700   35.1410 C.3   193  SER193      0.2130
     24  OG        14.3270   17.3200   34.5820 O.3   193  SER193     -0.2179
     25  N         17.8070   16.4020   36.6300 N.am  194  CYS194     -0.1953
     26  CA        19.0920   16.4230   37.2470 C.3   194  CYS194      0.1843
     27  C         19.7830   15.2780   36.5890 C.2   194  CYS194      0.2625
     28  O         19.2520   14.7470   35.6270 O.2   194  CYS194     -0.2714
     29  CB        18.9880   16.1450   38.7620 C.3   194  CYS194      0.0997
     30  SG        20.3790   17.0210   39.4700 S.3   194  CYS194     -0.0797
     31  N         20.8220   14.8030   37.2490 N.am  195  GLN195     -0.1963
     32  CA        21.6360   13.6880   36.8870 C.3   195  GLN195      0.1733
     33  C         20.9650   12.3660   37.0470 C.2   195  GLN195      0.2616
     34  O         20.2990   12.1510   38.0490 O.2   195  GLN195     -0.2715
     35  CB        22.9230   13.6810   37.7180 C.3   195  GLN195      0.0408
     36  CG        24.1840   13.3210   36.9430 C.3   195  GLN195      0.0908
     37  CD        25.4420   13.9280   37.5860 C.2   195  GLN195      0.2608
     38  OE1       25.5240   15.1170   37.9360 O.2   195  GLN195     -0.2717
     39  NE2       26.4800   13.0570   37.6860 N.am  195  GLN195     -0.0878
     40  N         21.3100   11.4240   36.1510 N.am  196  GLY196     -0.1955
     41  CA        20.7740   10.0760   36.2130 C.3   196  GLY196      0.1869
     42  C         19.2580   10.0970   36.2430 C.2   196  GLY196      0.2309
     43  O         18.6190    9.6440   37.1890 O.2   196  GLY196     -0.2863
     44  N         18.1760   11.1890   33.0210 N.3   198  SER198     -0.1217
     45  CA        17.8990   11.3390   31.6090 C.3   198  SER198      0.1889
     46  C         17.6020    9.9590   31.0150 C.2   198  SER198      0.2288
     47  O         17.9850    8.9150   31.5600 O.2   198  SER198     -0.2866
     48  CB        19.0760   11.9860   30.8920 C.3   198  SER198      0.2089
     49  OG        20.1850   11.6380   31.5410 O.3   198  SER198     -0.2183
     50  N         14.1750   12.8000   28.6960 N.3   216  VAL216     -0.1231
     51  CA        15.1290   13.7740   29.3120 C.3   216  VAL216      0.1692
     52  C         16.5230   13.5460   28.7990 C.2   216  VAL216      0.2593
     53  O         16.9950   12.4090   28.7710 O.2   216  VAL216     -0.2718
     54  CB        15.1520   13.6830   30.8780 C.3   216  VAL216      0.0266
     55  CG1       15.9080   14.8890   31.4700 C.3   216  VAL216      0.0020
     56  CG2       13.7240   13.6230   31.4340 C.3   216  VAL216      0.0020
     57  N         17.2430   14.6600   28.5300 N.am  217  SER217     -0.1938
     58  CA        18.5970   14.6460   27.9140 C.3   217  SER217      0.2055
     59  C         19.7940   15.4230   28.5100 C.2   217  SER217      0.2643
     60  O         20.8930   14.8690   28.6290 O.2   217  SER217     -0.2714
     61  CB        18.4730   15.0040   26.4230 C.3   217  SER217      0.2130
     62  OG        19.6370   14.8740   25.5680 O.3   217  SER217     -0.2179
     63  N         19.6490   16.7570   28.6840 N.am  218  TRP218     -0.1959
     64  CA        20.6750   17.6210   29.2950 C.3   218  TRP218      0.1771
     65  C         20.1080   18.8790   29.9190 C.2   218  TRP218      0.2620
     66  O         18.8760   19.0490   29.9650 O.2   218  TRP218     -0.2715
     67  CB        21.7390   18.0080   28.2790 C.3   218  TRP218      0.0590
     68  CG        21.2220   18.6420   27.0200 C.ar  218  TRP218      0.0006
     69  CD1       20.5680   18.0190   25.9870 C.ar  218  TRP218      0.0946
     70  CD2       21.3950   19.9890   26.6130 C.ar  218  TRP218      0.0152
     71  NE1       20.3390   18.8580   25.0040 N.ar  218  TRP218     -0.2442
     72  CE2       20.8220   20.0990   25.3330 C.ar  218  TRP218      0.0810
     73  CE3       21.9670   21.1260   27.1950 C.ar  218  TRP218      0.0012
     74  CZ2       20.8070   21.3110   24.6100 C.ar  218  TRP218      0.0191
     75  CZ3       21.9590   22.3440   26.4670 C.ar  218  TRP218      0.0001
     76  CH2       21.3790   22.4140   25.1960 C.ar  218  TRP218      0.0015
     77  N         21.0340   19.7810   30.4070 N.am  219  GLY219     -0.1954
     78  CA        20.6310   20.9970   31.1030 C.3   219  GLY219      0.1869
     79  C         21.8030   21.3900   31.9700 C.2   219  GLY219      0.2309
     80  O         22.7280   20.5990   32.1970 O.2   219  GLY219     -0.2863
     81  N         23.3990   22.5410   35.1000 N.3   221  GLY221     -0.1210
     82  CA        22.9140   22.4920   36.4650 C.3   221  GLY221      0.1956
     83  C         21.4990   21.9640   36.5140 C.2   221  GLY221      0.2612
     84  O         20.8290   21.8950   35.4830 O.2   221  GLY221     -0.2717
     85  N         21.0310   21.7370   37.7010 N.am  222  CYS222     -0.1970
     86  CA        19.7540   21.2320   37.9930 C.3   222  CYS222      0.1712
     87  C         19.2080   22.3580   38.8370 C.2   222  CYS222      0.2296
     88  O         19.8490   22.7660   39.8210 O.2   222  CYS222     -0.2864
     89  CB        19.8720   19.9590   38.8250 C.3   222  CYS222      0.0983
     90  SG        20.6980   18.4680   38.0960 S.3   222  CYS222     -0.0798
     91  N         18.2980   28.3480   33.0630 N.3   227  LYS227     -0.1231
     92  CA        18.8020   27.1000   32.6120 C.3   227  LYS227      0.1678
     93  C         17.7370   26.0110   32.5430 C.2   227  LYS227      0.2434
     94  O         17.5620   25.2250   33.4960 O.2   227  LYS227     -0.2733
     95  CB        19.9420   26.6550   33.5410 C.3   227  LYS227      0.0284
     96  CG        21.1950   27.5190   33.4170 C.3   227  LYS227      0.0035
     97  CD        21.4390   27.9300   31.9630 C.3   227  LYS227      0.0206
     98  CE        21.9590   29.3640   31.8860 C.3   227  LYS227      0.1093
     99  NZ        21.6650   30.0250   30.6260 N.3   227  LYS227     -0.1314
    100  N         16.9080   25.9830   31.4780 N.am  228  PRO228     -0.2718
    101  CA        15.9160   24.9000   31.2280 C.3   228  PRO228      0.1535
    102  C         16.5500   23.5300   31.1270 C.2   228  PRO228      0.2599
    103  O         17.7580   23.4310   30.9080 O.2   228  PRO228     -0.2715
    104  CB        15.2970   25.3100   29.9020 C.3   228  PRO228      0.0310
    105  CG        15.4060   26.7860   29.9170 C.3   228  PRO228      0.0237
    106  CD        16.7980   27.0250   30.4480 C.3   228  PRO228      0.0939
    107  N         15.7480   22.5150   31.4690 N.am  229  GLY229     -0.1955
    108  CA        16.0870   21.1380   31.1760 C.3   229  GLY229      0.1869
    109  C         15.5950   20.9470   29.7680 C.2   229  GLY229      0.2309
    110  O         14.6530   21.6290   29.3650 O.2   229  GLY229     -0.2863
@<TRIPOS>BOND
     1    74    76   ar
     2    74    72   ar
     3     1     2    1
     4    71    72   ar
     5    71    69   ar
     6    76    75   ar
     7    72    70   ar
     8    62    61    1
     9     2     5    1
    10     2     3    1
    11    69    68   ar
    12     5     6    1
    13    61    58    1
    14    75    73   ar
    15    70    68   ar
    16    70    73   ar
    17     3     4    2
    18    68    67    1
    19     6     7   ar
    20     6     8   ar
    21     7     9   ar
    22    58    59    1
    23    58    57    1
    24    67    64    1
    25    59    60    2
    26    59    63   am
    27    57    52   am
    28    63    64    1
    29    50    51    1
    30    53    52    2
    31     8    10   ar
    32    52    51    1
    33     9    10   ar
    34    64    65    1
    35    51    54    1
    36   110   109    2
    37   109   108    1
    38   104   105    1
    39   104   101    1
    40   105   106    1
    41    65    66    2
    42    65    77   am
    43    77    78    1
    44   106   100    1
    45    99    98    1
    46    54    56    1
    47    54    55    1
    48    48    49    1
    49    48    45    1
    50   103   102    2
    51    46    47    2
    52    46    45    1
    53    78    79    1
    54   102   101    1
    55   102   107   am
    56   108   107    1
    57   101   100    1
    58   100    93   am
    59    45    44    1
    60    98    97    1
    61    97    96    1
    62    79    80    2
    63    93    92    1
    64    93    94    2
    65    92    91    1
    66    92    95    1
    67    96    95    1
    68    24    23    1
    69    81    82    1
    70    23    20    1
    71    17    16   ar
    72    84    83    2
    73    28    27    2
    74    18    16   ar
    75    16    15    1
    76    40    41    1
    77    40    33   am
    78    41    42    1
    79    42    43    2
    80    82    83    1
    81    83    85   am
    82    20    19    1
    83    20    21    1
    84    19    13   am
    85    27    26    1
    86    27    31   am
    87    25    21   am
    88    25    26    1
    89    32    33    1
    90    32    31    1
    91    32    35    1
    92    36    37    1
    93    36    35    1
    94    21    22    2
    95    33    34    2
    96    26    29    1
    97    15    12    1
    98    37    39   am
    99    37    38    2
   100    13    12    1
   101    13    14    2
   102    85    86    1
   103    12    11    1
   104    86    89    1
   105    86    87    1
   106    90    89    1
   107    90    30    1
   108    29    30    1
   109    87    88    2
