@<TRIPOS>MOLECULE
tmp/1fvpB01.pdb
 134 129 0 0 0
SMALL
GASTEIGER

@<TRIPOS>ATOM
      1  N         -0.4480   18.4540   82.2520 N.3    60  LYS60      -0.1231
      2  CA         0.9740   18.6840   81.9090 C.3    60  LYS60       0.1693
      3  C          1.5400   19.6290   82.9620 C.2    60  LYS60       0.2592
      4  O          1.0120   20.7370   83.1500 O.2    60  LYS60      -0.2718
      5  CB         1.1630   19.1780   80.4820 C.3    60  LYS60       0.0285
      6  CG         1.2120   18.0970   79.3940 C.3    60  LYS60       0.0035
      7  CD         1.3510   18.6530   77.9860 C.3    60  LYS60       0.0206
      8  CE         0.0470   18.8660   77.2620 C.3    60  LYS60       0.1093
      9  NZ         0.2060   19.4330   75.9000 N.3    60  LYS60      -0.1314
     10  N          2.5790   19.1560   83.6380 N.am   61  LYS61      -0.1966
     11  CA         3.2440   19.9650   84.6810 C.3    61  LYS61       0.1728
     12  C          3.8560   21.1690   83.9560 C.2    61  LYS61       0.2616
     13  O          4.4710   20.9650   82.8940 O.2    61  LYS61      -0.2715
     14  CB         4.3240   19.2370   85.4510 C.3    61  LYS61       0.0311
     15  CG         3.8740   18.5590   86.7440 C.3    61  LYS61       0.0038
     16  CD         5.0260   18.1250   87.6210 C.3    61  LYS61       0.0206
     17  CE         5.2440   16.6440   87.7750 C.3    61  LYS61       0.1093
     18  NZ         6.2600   16.0760   86.8580 N.3    61  LYS61      -0.1314
     19  N          3.6640   22.3380   84.5280 N.am   62  LEU62      -0.1963
     20  CA         4.1520   23.6030   83.9950 C.3    62  LEU62       0.1728
     21  C          5.6460   23.8130   84.2370 C.2    62  LEU62       0.2616
     22  O          6.1250   23.4560   85.3230 O.2    62  LEU62      -0.2715
     23  CB         3.3690   24.7520   84.6660 C.3    62  LEU62       0.0311
     24  CG         2.3550   25.4990   83.8290 C.3    62  LEU62       0.0022
     25  CD1        0.9790   24.8870   83.9670 C.3    62  LEU62       0.0001
     26  CD2        2.3550   26.9460   84.2950 C.3    62  LEU62       0.0001
     27  N          6.2710   24.4210   83.2510 N.am   63  ALA63      -0.1964
     28  CA         7.7110   24.7670   83.2910 C.3    63  ALA63       0.1713
     29  C          7.9340   25.6710   84.5080 C.2    63  ALA63       0.2458
     30  O          7.5030   26.8380   84.5260 O.2    63  ALA63      -0.2730
     31  CB         8.0740   25.4620   81.9960 C.3    63  ALA63       0.0333
     32  N          8.5750   25.0930   85.5130 N.am   64  PRO64      -0.2716
     33  CA         8.8480   25.7430   86.7880 C.3    64  PRO64       0.1536
     34  C          9.8600   26.8500   86.7850 C.2    64  PRO64       0.2598
     35  O         10.8450   26.6790   87.5250 O.2    64  PRO64      -0.2715
     36  CB         9.4090   24.5800   87.6430 C.3    64  PRO64       0.0310
     37  CG        10.2060   23.8400   86.5740 C.3    64  PRO64       0.0237
     38  CD         9.1060   23.7030   85.5040 C.3    64  PRO64       0.0939
     39  N          9.6540   27.9100   86.0430 N.am   65  PHE65      -0.1974
     40  CA        10.6350   29.0130   86.0270 C.3    65  PHE65       0.1639
     41  C         10.6060   29.7420   87.3660 C.2    65  PHE65       0.2290
     42  O          9.7530   29.5120   88.2340 O.2    65  PHE65      -0.2864
     43  CB        10.3690   29.9850   84.8890 C.3    65  PHE65       0.0560
     44  CG        10.6280   29.3500   83.5500 C.ar   65  PHE65      -0.0200
     45  CD1        9.6110   28.6060   82.9490 C.ar   65  PHE65      -0.0042
     46  CD2       11.8730   29.4880   82.9500 C.ar   65  PHE65      -0.0042
     47  CE1        9.8360   28.0060   81.7260 C.ar   65  PHE65      -0.0003
     48  CE2       12.1230   28.8790   81.7310 C.ar   65  PHE65      -0.0003
     49  CZ        11.0930   28.1250   81.1310 C.ar   65  PHE65      -0.0000
     50  N         16.2080   35.2070   84.1250 N.3    72  LEU72      -0.1245
     51  CA        15.3500   34.0040   84.2410 C.3    72  LEU72       0.1561
     52  C         16.1700   32.8840   84.8880 C.2    72  LEU72       0.2260
     53  O         17.4120   32.9160   84.7560 O.2    72  LEU72      -0.2867
     54  CB        14.8360   33.7150   82.8330 C.3    72  LEU72       0.0270
     55  CG        13.9720   32.5190   82.5360 C.3    72  LEU72       0.0019
     56  CD1       12.5800   32.6300   83.1520 C.3    72  LEU72       0.0001
     57  CD2       13.7150   32.4250   81.0300 C.3    72  LEU72       0.0001
     58  N         15.5940   28.4540   86.3740 N.3    74  VAL74      -0.1245
     59  CA        14.8070   27.2030   86.3470 C.3    74  VAL74       0.1561
     60  C         15.0600   26.4230   87.6490 C.2    74  VAL74       0.2260
     61  O         16.1870   25.9390   87.8650 O.2    74  VAL74      -0.2867
     62  CB        15.1060   26.3650   85.0900 C.3    74  VAL74       0.0252
     63  CG1       14.2370   25.1200   84.9800 C.3    74  VAL74       0.0019
     64  CG2       15.0100   27.1680   83.8020 C.3    74  VAL74       0.0019
     65  N         13.4700   21.5630   90.4960 N.3    77  THR77      -0.1203
     66  CA        12.2960   20.7500   90.8130 C.3    77  THR77       0.1994
     67  C         12.6100   19.2750   90.6850 C.2    77  THR77       0.2618
     68  O         12.1860   18.4960   91.5450 O.2    77  THR77      -0.2717
     69  CB        11.0560   21.1950   89.9450 C.3    77  THR77       0.1784
     70  OG1        9.8500   20.4680   90.3300 O.3    77  THR77      -0.2211
     71  CG2       11.3030   21.0150   88.4510 C.3    77  THR77       0.0376
     72  N         13.3320   18.8910   89.6570 N.am   78  SER78      -0.1951
     73  CA        13.6830   17.4790   89.4370 C.3    78  SER78       0.1924
     74  C         14.9420   17.2830   88.6090 C.2    78  SER78       0.2314
     75  O         15.7560   18.1930   88.4270 O.2    78  SER78      -0.2863
     76  CB        12.5000   16.7220   88.8370 C.3    78  SER78       0.2116
     77  OG        11.5360   16.4240   89.8440 O.3    78  SER78      -0.2180
     78  N         14.7750   15.8690   85.3610 N.3    80  ASN80      -0.1225
     79  CA        14.4790   16.1860   83.9440 C.3    80  ASN80       0.1785
     80  C         14.6770   17.7110   83.7950 C.2    80  ASN80       0.2597
     81  O         15.5620   18.1790   83.0950 O.2    80  ASN80      -0.2718
     82  CB        13.0690   15.8950   83.4760 C.3    80  ASN80       0.1169
     83  CG        12.7810   14.4330   83.2410 C.2    80  ASN80       0.2627
     84  OD1       12.8340   13.6390   84.2080 O.2    80  ASN80      -0.2716
     85  ND2       12.4880   14.1100   81.9850 N.am   80  ASN80      -0.0877
     86  N         13.7800   18.3790   84.4950 N.am   81  THR81      -0.1953
     87  CA        13.7850   19.8400   84.5140 C.3    81  THR81       0.1897
     88  C         15.1970   20.4130   84.4460 C.2    81  THR81       0.2313
     89  O         15.5110   21.2510   83.5860 O.2    81  THR81      -0.2863
     90  CB        13.0810   20.3960   85.8200 C.3    81  THR81       0.1794
     91  OG1       11.8930   19.5340   85.9700 O.3    81  THR81      -0.2208
     92  CG2       12.8170   21.9020   85.7680 C.3    81  THR81       0.0378
     93  N         16.4690   19.6790   81.2130 N.3    84  ILE84      -0.1231
     94  CA        15.9210   20.6090   80.2170 C.3    84  ILE84       0.1692
     95  C         16.6350   21.9560   80.3310 C.2    84  ILE84       0.2591
     96  O         17.0040   22.5240   79.3030 O.2    84  ILE84      -0.2718
     97  CB        14.3800   20.8290   80.3030 C.3    84  ILE84       0.0266
     98  CG1       13.6520   19.5400   79.9000 C.3    84  ILE84       0.0019
     99  CG2       13.9350   22.0360   79.4540 C.3    84  ILE84       0.0020
    100  CD1       12.1040   19.6480   79.8050 C.3    84  ILE84       0.0001
    101  N         16.8080   22.4540   81.5320 N.am   85  ALA85      -0.1980
    102  CA        17.4600   23.7540   81.7660 C.3    85  ALA85       0.1597
    103  C         18.8820   23.7930   81.2230 C.2    85  ALA85       0.2287
    104  O         19.4050   24.8680   80.9090 O.2    85  ALA85      -0.2864
    105  CB        17.3910   24.1270   83.2430 C.3    85  ALA85       0.0319
    106  N         19.9750   22.7470   78.4060 N.3    87  LYS87      -0.1231
    107  CA        19.9550   23.1730   77.0010 C.3    87  LYS87       0.1693
    108  C         20.2170   24.6500   76.7410 C.2    87  LYS87       0.2592
    109  O         21.2260   25.1090   76.1830 O.2    87  LYS87      -0.2718
    110  CB        18.5970   22.8390   76.3440 C.3    87  LYS87       0.0285
    111  CG        18.6610   21.3850   75.8670 C.3    87  LYS87       0.0035
    112  CD        17.2580   20.8490   75.6260 C.3    87  LYS87       0.0206
    113  CE        16.7010   21.5030   74.3760 C.3    87  LYS87       0.1093
    114  NZ        15.2470   21.2250   74.3270 N.3    87  LYS87      -0.1314
    115  N         19.2270   25.4190   77.1430 N.am   88  TYR88      -0.1976
    116  CA        19.1790   26.8840   77.0200 C.3    88  TYR88       0.1639
    117  C         20.2760   27.5400   77.8420 C.2    88  TYR88       0.2290
    118  O         20.5380   28.7550   77.7780 O.2    88  TYR88      -0.2864
    119  CB        17.7370   27.2420   77.4070 C.3    88  TYR88       0.0560
    120  CG        16.7190   26.4760   76.5750 C.ar   88  TYR88      -0.0198
    121  CD1       16.5270   26.8120   75.2430 C.ar   88  TYR88      -0.0009
    122  CD2       15.9430   25.4460   77.0840 C.ar   88  TYR88      -0.0009
    123  CE1       15.5840   26.1650   74.4530 C.ar   88  TYR88       0.0417
    124  CE2       14.9840   24.7840   76.3240 C.ar   88  TYR88       0.0417
    125  CZ        14.8060   25.1520   75.0010 C.ar   88  TYR88       0.1957
    126  OH        13.8970   24.4980   74.2070 O.3    88  TYR88      -0.2866
    127  N         20.4760   27.9470   80.9710 N.3    90  LEU90      -0.1245
    128  CA        19.7940   28.8130   81.9400 C.3    90  LEU90       0.1561
    129  C         20.3170   28.3810   83.3180 C.2    90  LEU90       0.2260
    130  O         20.6820   27.2000   83.4550 O.2    90  LEU90      -0.2867
    131  CB        18.2910   28.5510   81.7900 C.3    90  LEU90       0.0270
    132  CG        17.3020   29.4800   81.1440 C.3    90  LEU90       0.0019
    133  CD1       17.8600   30.2550   79.9610 C.3    90  LEU90       0.0001
    134  CD2       16.0860   28.6620   80.6600 C.3    90  LEU90       0.0001
@<TRIPOS>BOND
     1   126   125    1
     2   114   113    1
     3   113   112    1
     4   123   125   ar
     5   123   121   ar
     6   125   124   ar
     7   121   120   ar
     8   112   111    1
     9   111   110    1
    10     9     8    1
    11   109   108    2
    12   124   122   ar
    13   110   107    1
    14   120   122   ar
    15   120   119    1
    16   108   107    1
    17   108   115   am
    18   107   106    1
    19   116   115    1
    20   116   119    1
    21   116   117    1
    22     8     7    1
    23   118   117    2
    24     7     6    1
    25    96    95    2
    26     6     5    1
    27    99    97    1
    28   100    98    1
    29    98    97    1
    30   133   132    1
    31    94    97    1
    32    94    95    1
    33    94    93    1
    34    95   101   am
    35     5     2    1
    36   134   132    1
    37   104   103    2
    38   127   128    1
    39    57    55    1
    40    49    47   ar
    41    49    48   ar
    42   132   131    1
    43   103   102    1
    44   101   102    1
    45    47    45   ar
    46    48    46   ar
    47   102   105    1
    48   131   128    1
    49     2     1    1
    50     2     3    1
    51   128   129    1
    52    85    83   am
    53    31    28    1
    54    55    54    1
    55    55    56    1
    56    54    51    1
    57    13    12    2
    58    45    44   ar
    59    46    44   ar
    60     3     4    2
    61     3    10   am
    62    81    80    2
    63    83    82    1
    64    83    84    2
    65    27    28    1
    66    27    21   am
    67    28    29    1
    68   129   130    2
    69    82    79    1
    70    44    43    1
    71    89    88    2
    72    10    11    1
    73    80    79    1
    74    80    86   am
    75    64    62    1
    76    24    25    1
    77    24    26    1
    78    24    23    1
    79    79    78    1
    80    12    19   am
    81    12    11    1
    82    20    21    1
    83    20    19    1
    84    20    23    1
    85    50    51    1
    86    21    22    2
    87    51    52    1
    88    88    87    1
    89    86    87    1
    90    29    30    2
    91    29    32   am
    92    87    90    1
    93    11    14    1
    94    53    52    2
    95    43    40    1
    96    63    62    1
    97    62    59    1
    98    14    15    1
    99    38    32    1
   100    38    37    1
   101    32    33    1
   102    92    90    1
   103    90    91    1
   104    40    39    1
   105    40    41    1
   106    39    34   am
   107    59    58    1
   108    59    60    1
   109    37    36    1
   110    15    16    1
   111    34    33    1
   112    34    35    2
   113    33    36    1
   114    18    17    1
   115    41    42    2
   116    16    17    1
   117    60    61    2
   118    75    74    2
   119    71    69    1
   120    74    73    1
   121    76    73    1
   122    76    77    1
   123    73    72    1
   124    72    67   am
   125    69    70    1
   126    69    66    1
   127    65    66    1
   128    67    66    1
   129    67    68    2
