@<TRIPOS>MOLECULE
tmp/1fvpB00.pdb
 115 111 0 0 0
SMALL
GASTEIGER

@<TRIPOS>ATOM
      1  N         10.8650   34.3030  100.6660 N.3    10  PHE10      -0.1227
      2  CA         9.7900   34.2060  101.6620 C.3    10  PHE10       0.1736
      3  C          9.0670   32.9030  101.2950 C.2    10  PHE10       0.2595
      4  O          9.0570   32.6480  100.0730 O.2    10  PHE10      -0.2718
      5  CB         8.8060   35.3700  101.6460 C.3    10  PHE10       0.0547
      6  CG         9.3960   36.6850  102.0520 C.ar   10  PHE10      -0.0202
      7  CD1       10.0160   37.4950  101.1040 C.ar   10  PHE10      -0.0042
      8  CD2        9.3620   37.0940  103.3840 C.ar   10  PHE10      -0.0042
      9  CE1       10.5790   38.7090  101.4570 C.ar   10  PHE10      -0.0003
     10  CE2        9.9140   38.3070  103.7700 C.ar   10  PHE10      -0.0003
     11  CZ        10.5290   39.1040  102.7920 C.ar   10  PHE10      -0.0000
     12  N          8.5700   32.1830  102.2780 N.am   11  VAL11      -0.1966
     13  CA         7.8270   30.9370  101.9010 C.3    11  VAL11       0.1727
     14  C          6.4010   31.4730  101.8200 C.2    11  VAL11       0.2616
     15  O          6.2700   32.6770  102.1340 O.2    11  VAL11      -0.2715
     16  CB         8.1390   29.7480  102.7790 C.3    11  VAL11       0.0290
     17  CG1        7.1330   28.6030  102.6140 C.3    11  VAL11       0.0023
     18  CG2        9.5350   29.1660  102.5340 C.3    11  VAL11       0.0023
     19  N          5.4320   30.7190  101.4070 N.am   12  ASN12      -0.1958
     20  CA         4.0550   31.2590  101.3350 C.3    12  ASN12       0.1819
     21  C          3.0890   30.1290  101.6960 C.2    12  ASN12       0.2621
     22  O          2.9560   29.1360  100.9750 O.2    12  ASN12      -0.2715
     23  CB         3.8350   31.9260   99.9940 C.3    12  ASN12       0.1195
     24  CG         2.6070   32.8140   99.9330 C.2    12  ASN12       0.2630
     25  OD1        1.4660   32.3800   99.6780 O.2    12  ASN12      -0.2716
     26  ND2        2.8550   34.1060  100.1820 N.am   12  ASN12      -0.0877
     27  N          2.4450   30.3170  102.8310 N.am   13  PHE13      -0.1960
     28  CA         1.4640   29.3480  103.3800 C.3    13  PHE13       0.1771
     29  C          0.6460   30.1120  104.4290 C.2    13  PHE13       0.2619
     30  O          1.0500   31.2180  104.8650 O.2    13  PHE13      -0.2715
     31  CB         2.1870   28.0780  103.8450 C.3    13  PHE13       0.0574
     32  CG         3.0790   28.2920  105.0320 C.ar   13  PHE13      -0.0200
     33  CD1        4.2550   29.0390  104.9130 C.ar   13  PHE13      -0.0042
     34  CD2        2.7360   27.7880  106.2840 C.ar   13  PHE13      -0.0042
     35  CE1        5.0740   29.2900  106.0080 C.ar   13  PHE13      -0.0003
     36  CE2        3.5410   28.0160  107.4040 C.ar   13  PHE13      -0.0003
     37  CZ         4.7120   28.7690  107.2480 C.ar   13  PHE13      -0.0000
     38  N         -0.4910   29.5510  104.8130 N.am   14  TYR14      -0.1974
     39  CA        -1.3820   30.1520  105.7920 C.3    14  TYR14       0.1639
     40  C         -1.5340   29.3960  107.1160 C.2    14  TYR14       0.2290
     41  O         -1.4150   28.1740  107.2530 O.2    14  TYR14      -0.2864
     42  CB        -2.8150   30.2780  105.2410 C.3    14  TYR14       0.0560
     43  CG        -3.0580   31.3200  104.1970 C.ar   14  TYR14      -0.0198
     44  CD1       -2.4440   32.5740  104.2350 C.ar   14  TYR14      -0.0009
     45  CD2       -3.9580   31.0330  103.1660 C.ar   14  TYR14      -0.0009
     46  CE1       -2.7100   33.5180  103.2390 C.ar   14  TYR14       0.0417
     47  CE2       -4.2220   31.9650  102.1750 C.ar   14  TYR14       0.0417
     48  CZ        -3.6030   33.2020  102.2140 C.ar   14  TYR14       0.1957
     49  OH        -3.8920   34.0870  101.2180 O.3    14  TYR14      -0.2866
     50  N          0.1600   29.6380  109.6910 N.3    16  LYS16      -0.1245
     51  CA         1.4730   28.9980  109.9880 C.3    16  LYS16       0.1561
     52  C          1.1740   28.2170  111.2680 C.2    16  LYS16       0.2260
     53  O          1.1550   26.9810  111.2560 O.2    16  LYS16      -0.2867
     54  CB         2.5510   30.0230  110.1350 C.3    16  LYS16       0.0271
     55  CG         3.8340   29.7230  110.8730 C.3    16  LYS16       0.0035
     56  CD         4.8370   30.8640  110.8220 C.3    16  LYS16       0.0206
     57  CE         5.3050   31.1880  109.4240 C.3    16  LYS16       0.1093
     58  NZ         6.3170   32.2690  109.3930 N.3    16  LYS16      -0.1314
     59  N         -1.9520   34.4770  112.2900 N.3    21  PRO21      -0.2102
     60  CA        -2.2460   34.9870  110.9600 C.3    21  PRO21       0.1504
     61  C         -1.4900   36.1860  110.4310 C.2    21  PRO21       0.2576
     62  O         -0.6470   36.0470  109.5160 O.2    21  PRO21      -0.2718
     63  CB        -3.7590   35.2140  110.9520 C.3    21  PRO21       0.0282
     64  CG        -4.3170   34.3870  112.0600 C.3    21  PRO21       0.0208
     65  CD        -3.1650   33.9040  112.9120 C.3    21  PRO21       0.0893
     66  N         -1.7950   37.3610  110.9490 N.am   22  SER22      -0.1953
     67  CA        -1.1770   38.6160  110.5050 C.3    22  SER22       0.1924
     68  C          0.0730   38.9630  111.2910 C.2    22  SER22       0.2314
     69  O          0.4970   40.1380  111.3240 O.2    22  SER22      -0.2863
     70  CB        -2.2040   39.7410  110.5000 C.3    22  SER22       0.2116
     71  OG        -3.0950   39.5550  111.5920 O.3    22  SER22      -0.2180
     72  N          3.0810   37.0030  110.9290 N.3    24  THR24      -0.1203
     73  CA         3.9860   36.7060  109.8320 C.3    24  THR24       0.1994
     74  C          4.0370   37.8170  108.7930 C.2    24  THR24       0.2617
     75  O          5.1020   38.3440  108.4660 O.2    24  THR24      -0.2717
     76  CB         3.4790   35.3970  109.0870 C.3    24  THR24       0.1784
     77  OG1        2.0660   35.6770  108.8170 O.3    24  THR24      -0.2211
     78  CG2        3.6790   34.1140  109.8750 C.3    24  THR24       0.0376
     79  N          2.8570   38.1190  108.2720 N.am   25  MET25      -0.1979
     80  CA         2.7230   39.1610  107.2350 C.3    25  MET25       0.1605
     81  C          3.2660   40.4960  107.7390 C.2    25  MET25       0.2287
     82  O          3.8060   41.2960  106.9370 O.2    25  MET25      -0.2864
     83  CB         1.3020   39.1830  106.6920 C.3    25  MET25       0.0413
     84  CG         1.0420   40.3160  105.7370 C.3    25  MET25       0.0598
     85  SD         1.6820   39.9330  104.0560 S.3    25  MET25      -0.1393
     86  CE         2.5630   41.4920  103.7690 C.3    25  MET25       0.0692
     87  N          7.0700   40.0560  107.7520 N.3    28  ALA28      -0.1245
     88  CA         7.3740   40.0100  106.3270 C.3    28  ALA28       0.1562
     89  C          7.6230   41.4460  105.8630 C.2    28  ALA28       0.2260
     90  O          8.6640   41.7420  105.2620 O.2    28  ALA28      -0.2867
     91  CB         6.2060   39.4260  105.5460 C.3    28  ALA28       0.0290
     92  N         11.1070   43.4500  104.4710 N.3    32  LEU32      -0.1301
     93  CA        10.9920   44.3160  103.3090 C.3    32  LEU32       0.1247
     94  C         11.5130   45.7120  103.5700 C.3    32  LEU32       0.2009
     95  O         12.2610   46.1650  102.6660 O.3    32  LEU32      -0.2188
     96  CB         9.6110   44.2140  102.6630 C.3    32  LEU32       0.0217
     97  CG         9.4350   43.0440  101.7000 C.3    32  LEU32       0.0015
     98  CD1        8.0080   43.0140  101.1790 C.3    32  LEU32       0.0000
     99  CD2       10.4000   43.1910  100.5340 C.3    32  LEU32       0.0000
    100  N         14.1690   39.8200   95.6400 N.3    45  ILE45      -0.1245
    101  CA        13.3590   39.0750   96.6300 C.3    45  ILE45       0.1561
    102  C         12.7450   37.8710   95.9390 C.2    45  ILE45       0.2260
    103  O         13.0250   37.6810   94.7370 O.2    45  ILE45      -0.2867
    104  CB        12.3700   40.0050   97.3880 C.3    45  ILE45       0.0252
    105  CG1       11.1030   40.3370   96.5640 C.3    45  ILE45       0.0019
    106  CG2       13.0490   41.3220   97.8630 C.3    45  ILE45       0.0019
    107  CD1        9.9410   40.9040   97.4320 C.3    45  ILE45       0.0001
    108  N          9.2570   34.6890   96.3470 N.3    47  ILE47      -0.1245
    109  CA         8.1660   34.1290   97.1510 C.3    47  ILE47       0.1561
    110  C          7.9360   32.6840   96.7730 C.2    47  ILE47       0.2260
    111  O          6.9710   32.2980   96.1090 O.2    47  ILE47      -0.2867
    112  CB         6.8900   35.0420   97.1120 C.3    47  ILE47       0.0252
    113  CG1        7.2930   36.4730   97.5470 C.3    47  ILE47       0.0019
    114  CG2        5.7040   34.4680   97.9360 C.3    47  ILE47       0.0019
    115  CD1        6.1630   37.4790   97.7970 C.3    47  ILE47       0.0001
@<TRIPOS>BOND
     1   103   102    2
     2   100   101    1
     3   102   101    1
     4   111   110    2
     5   108   109    1
     6   105   104    1
     7   105   107    1
     8   101   104    1
     9   110   109    1
    10   112   109    1
    11   112   113    1
    12   112   114    1
    13   104   106    1
    14   113   115    1
    15    25    24    2
    16    24    23    1
    17    24    26   am
    18    23    20    1
    19     4     3    2
    20    99    97    1
    21     1     2    1
    22    22    21    2
    23     7     9   ar
    24     7     6   ar
    25    98    97    1
    26    49    48    1
    27     3     2    1
    28     3    12   am
    29    20    19    1
    30    20    21    1
    31    19    14   am
    32     9    11   ar
    33     5     2    1
    34     5     6    1
    35    21    27   am
    36    97    96    1
    37    14    13    1
    38    14    15    2
    39    13    12    1
    40    13    16    1
    41     6     8   ar
    42    47    48   ar
    43    47    45   ar
    44    48    46   ar
    45    18    16    1
    46    17    16    1
    47    96    93    1
    48    95    94    1
    49    11    10   ar
    50    27    28    1
    51    45    43   ar
    52    46    44   ar
    53    93    94    1
    54    93    92    1
    55    28    31    1
    56    28    29    1
    57     8    10   ar
    58    86    85    1
    59    31    32    1
    60    85    84    1
    61    43    44   ar
    62    43    42    1
    63    29    38   am
    64    29    30    2
    65    38    39    1
    66    33    32   ar
    67    33    35   ar
    68    32    34   ar
    69    42    39    1
    70    90    89    2
    71    91    88    1
    72    84    83    1
    73    39    40    1
    74    89    88    1
    75    35    37   ar
    76    34    36   ar
    77    88    87    1
    78    83    80    1
    79    82    81    2
    80    40    41    2
    81    80    81    1
    82    80    79    1
    83    37    36   ar
    84    79    74   am
    85    75    74    2
    86    74    73    1
    87    77    76    1
    88    76    73    1
    89    76    78    1
    90    58    57    1
    91    57    56    1
    92    62    61    2
    93    50    51    1
    94    73    72    1
    95    51    54    1
    96    51    52    1
    97    54    55    1
    98    61    66   am
    99    61    60    1
   100    70    67    1
   101    70    71    1
   102    67    66    1
   103    67    68    1
   104    56    55    1
   105    63    60    1
   106    63    64    1
   107    60    59    1
   108    53    52    2
   109    68    69    2
   110    64    65    1
   111    59    65    1
