@<TRIPOS>MOLECULE
tmp/1fvpB02.pdb
 207 198 0 0 0
SMALL
GASTEIGER

@<TRIPOS>ATOM
      1  N         38.4530   37.9670   93.1950 N.3     1  MET1       -0.1230
      2  CA        37.3470   37.4390   94.0060 C.3     1  MET1        0.1702
      3  C         36.0230   37.9350   93.4130 C.2     1  MET1        0.2592
      4  O         35.6080   39.0760   93.7140 O.2     1  MET1       -0.2718
      5  CB        37.5170   37.8240   95.4740 C.3     1  MET1        0.0401
      6  CG        38.2510   36.7570   96.2470 C.3     1  MET1        0.0596
      7  SD        37.8410   36.9490   98.0270 S.3     1  MET1       -0.1393
      8  CE        38.5660   35.4390   98.6920 C.3     1  MET1        0.0692
      9  N         35.4250   37.0680   92.5960 N.am    2  ASN2       -0.1960
     10  CA        34.1300   37.3820   91.9390 C.3     2  ASN2        0.1819
     11  C         33.1510   37.7460   93.0650 C.2     2  ASN2        0.2621
     12  O         33.1150   37.0850   94.1130 O.2     2  ASN2       -0.2715
     13  CB        33.6650   36.2980   90.9980 C.3     2  ASN2        0.1195
     14  CG        33.4460   34.9280   91.5890 C.2     2  ASN2        0.2630
     15  OD1       34.3890   34.1670   91.8430 O.2     2  ASN2       -0.2716
     16  ND2       32.1900   34.5540   91.8210 N.am    2  ASN2       -0.0877
     17  N         32.4200   38.7960   92.8230 N.am    3  LYS3       -0.1963
     18  CA        31.4310   39.3900   93.7290 C.3     3  LYS3        0.1728
     19  C         30.1310   38.6170   93.8100 C.2     3  LYS3        0.2616
     20  O         29.2500   38.7500   92.9450 O.2     3  LYS3       -0.2715
     21  CB        31.2210   40.8160   93.2410 C.3     3  LYS3        0.0311
     22  CG        29.9270   41.5250   93.5360 C.3     3  LYS3        0.0038
     23  CD        29.6700   42.6430   92.5230 C.3     3  LYS3        0.0206
     24  CE        28.2600   43.1890   92.6750 C.3     3  LYS3        0.1093
     25  NZ        27.2820   42.0780   92.7210 N.3     3  LYS3       -0.1314
     26  N         29.9920   37.8090   94.8400 N.am    4  TRP4       -0.1974
     27  CA        28.8390   36.9650   95.1680 C.3     4  TRP4        0.1640
     28  C         27.6090   37.8560   95.4150 C.2     4  TRP4        0.2290
     29  O         27.7830   38.9570   95.9850 O.2     4  TRP4       -0.2864
     30  CB        29.1120   36.1850   96.4370 C.3     4  TRP4        0.0576
     31  CG        30.2610   35.2790   96.5470 C.ar    4  TRP4        0.0006
     32  CD1       31.3010   35.0740   95.6890 C.ar    4  TRP4        0.0946
     33  CD2       30.5150   34.4110   97.6750 C.ar    4  TRP4        0.0152
     34  NE1       32.1770   34.1300   96.1870 N.ar    4  TRP4       -0.2442
     35  CE2       31.7110   33.7080   97.4030 C.ar    4  TRP4        0.0810
     36  CE3       29.8340   34.1740   98.8650 C.ar    4  TRP4        0.0012
     37  CZ2       32.2360   32.7780   98.2860 C.ar    4  TRP4        0.0191
     38  CZ3       30.3510   33.2470   99.7350 C.ar    4  TRP4        0.0001
     39  CH2       31.5320   32.5690   99.4620 C.ar    4  TRP4        0.0015
     40  N         23.3950   38.4170   96.7960 N.3     6  TYR6       -0.1241
     41  CA        22.3550   38.0790   97.7580 C.3     6  TYR6        0.1605
     42  C         20.9730   38.6750   97.5000 C.2     6  TYR6        0.2264
     43  O         20.8150   39.8770   97.2130 O.2     6  TYR6       -0.2867
     44  CB        22.7720   38.5670   99.2100 C.3     6  TYR6        0.0534
     45  CG        24.2180   38.1890   99.4460 C.ar    6  TYR6       -0.0201
     46  CD1       24.5480   36.8610   99.7330 C.ar    6  TYR6       -0.0009
     47  CD2       25.2370   39.1310   99.3040 C.ar    6  TYR6       -0.0009
     48  CE1       25.8750   36.4880   99.8900 C.ar    6  TYR6        0.0417
     49  CE2       26.5730   38.7760   99.4740 C.ar    6  TYR6        0.0417
     50  CZ        26.8790   37.4500   99.7560 C.ar    6  TYR6        0.1957
     51  OH        28.1960   37.0840   99.9020 O.3     6  TYR6       -0.2866
     52  N         17.5470   31.0790  107.4310 N.3   132  VAL132     -0.1245
     53  CA        18.6700   31.4080  108.3480 C.3   132  VAL132      0.1561
     54  C         18.1650   31.6570  109.7590 C.2   132  VAL132      0.2260
     55  O         17.0500   32.1690  109.9140 O.2   132  VAL132     -0.2867
     56  CB        19.5120   32.5630  107.7880 C.3   132  VAL132      0.0252
     57  CG1       20.2020   33.4100  108.8450 C.3   132  VAL132      0.0019
     58  CG2       20.5570   32.0770  106.7930 C.3   132  VAL132      0.0019
     59  N         19.9750   33.0930  113.4490 N.3   134  VAL134     -0.1245
     60  CA        21.1950   33.5980  114.1030 C.3   134  VAL134      0.1561
     61  C         20.9400   34.1210  115.5130 C.2   134  VAL134      0.2260
     62  O         20.0610   34.9450  115.8180 O.2   134  VAL134     -0.2867
     63  CB        21.8720   34.6130  113.1600 C.3   134  VAL134      0.0252
     64  CG1       22.9840   35.4220  113.7990 C.3   134  VAL134      0.0019
     65  CG2       22.4000   33.9370  111.9120 C.3   134  VAL134      0.0019
     66  N         20.7850   27.2380  107.3910 N.3   173  VAL173     -0.1245
     67  CA        21.6910   27.9810  108.2630 C.3   173  VAL173      0.1561
     68  C         21.1300   28.4220  109.6120 C.2   173  VAL173      0.2260
     69  O         20.4980   29.4680  109.7950 O.2   173  VAL173     -0.2867
     70  CB        22.2610   29.1970  107.4950 C.3   173  VAL173      0.0252
     71  CG1       23.1330   30.1110  108.3380 C.3   173  VAL173      0.0019
     72  CG2       23.0320   28.7750  106.2680 C.3   173  VAL173      0.0019
     73  N         25.7130   33.8190  114.2380 N.3   177  TYR177     -0.1241
     74  CA        26.2940   34.6990  113.2240 C.3   177  TYR177      0.1605
     75  C         27.6740   34.2250  112.7700 C.2   177  TYR177      0.2264
     76  O         27.7770   33.4360  111.8140 O.2   177  TYR177     -0.2867
     77  CB        26.3900   36.1630  113.6750 C.3   177  TYR177      0.0534
     78  CG        26.8210   37.1230  112.5870 C.ar  177  TYR177     -0.0201
     79  CD1       25.8500   37.6730  111.7450 C.ar  177  TYR177     -0.0009
     80  CD2       28.1450   37.4960  112.3860 C.ar  177  TYR177     -0.0009
     81  CE1       26.1980   38.5680  110.7360 C.ar  177  TYR177      0.0417
     82  CE2       28.5060   38.3920  111.3840 C.ar  177  TYR177      0.0417
     83  CZ        27.5330   38.9300  110.5610 C.ar  177  TYR177      0.1957
     84  OH        27.8690   39.8190  109.5770 O.3   177  TYR177     -0.2866
     85  N         27.5300   30.7270  111.3930 N.3   180  CYS180     -0.1221
     86  CA        26.6510   30.6970  110.2170 C.3   180  CYS180      0.1808
     87  C         27.4160   31.1500  108.9780 C.2   180  CYS180      0.2601
     88  O         27.6010   30.3610  108.0440 O.2   180  CYS180     -0.2717
     89  CB        25.4130   31.5650  110.4330 C.3   180  CYS180      0.0970
     90  SG        24.1790   30.7020  111.4470 S.3   180  CYS180     -0.0800
     91  N         27.8340   32.3930  109.0160 N.am  181  LEU181     -0.1965
     92  CA        28.6210   33.0480  107.9660 C.3   181  LEU181      0.1728
     93  C         29.5660   32.0260  107.3170 C.2   181  LEU181      0.2616
     94  O         29.3360   31.4330  106.2560 O.2   181  LEU181     -0.2715
     95  CB        29.3950   34.1370  108.7040 C.3   181  LEU181      0.0311
     96  CG        29.6150   35.4790  108.0690 C.3   181  LEU181      0.0022
     97  CD1       28.5670   36.4680  108.5830 C.3   181  LEU181      0.0001
     98  CD2       31.0300   35.9660  108.3950 C.3   181  LEU181      0.0001
     99  N         30.6590   31.8160  108.0160 N.am  182  SER182     -0.1950
    100  CA        31.7350   30.9000  107.6710 C.3   182  SER182      0.1924
    101  C         31.2300   29.6020  107.0530 C.2   182  SER182      0.2314
    102  O         31.9410   29.0410  106.2010 O.2   182  SER182     -0.2863
    103  CB        32.5280   30.5460  108.9340 C.3   182  SER182      0.2116
    104  OG        32.8610   31.7380  109.6240 O.3   182  SER182     -0.2180
    105  N         28.1010   29.0890  105.3140 N.3   184  VAL184     -0.1231
    106  CA        27.5270   29.1440  103.9390 C.3   184  VAL184      0.1692
    107  C         28.7380   29.2800  102.9940 C.2   184  VAL184      0.2591
    108  O         28.7840   28.6330  101.9440 O.2   184  VAL184     -0.2718
    109  CB        26.4150   30.1440  103.6980 C.3   184  VAL184      0.0266
    110  CG1       25.6310   30.5210  104.9500 C.3   184  VAL184      0.0020
    111  CG2       26.8460   31.3930  102.9420 C.3   184  VAL184      0.0020
    112  N         29.6840   30.0900  103.4350 N.am  185  ALA185     -0.1980
    113  CA        30.9370   30.3130  102.6940 C.3   185  ALA185      0.1597
    114  C         31.4990   28.9070  102.4290 C.2   185  ALA185      0.2287
    115  O         32.0330   28.5960  101.3590 O.2   185  ALA185     -0.2864
    116  CB        31.9470   31.1220  103.4800 C.3   185  ALA185      0.0319
    117  N         32.3990   27.3630   93.7600 N.3   193  ASN193     -0.1240
    118  CA        32.2160   28.7570   94.1510 C.3   193  ASN193      0.1653
    119  C         31.4370   29.5550   93.1110 C.2   193  ASN193      0.2266
    120  O         31.7790   30.7280   92.8930 O.2   193  ASN193     -0.2867
    121  CB        33.5600   29.4160   94.4930 C.3   193  ASN193      0.1155
    122  CG        33.9540   29.1470   95.9340 C.2   193  ASN193      0.2627
    123  OD1       33.1520   28.6250   96.7410 O.2   193  ASN193     -0.2716
    124  ND2       35.1880   29.5030   96.2730 N.am  193  ASN193     -0.0877
    125  N         23.2990   33.2660   96.7110 N.3   197  PHE197     -0.1241
    126  CA        22.3980   33.0530   97.8280 C.3   197  PHE197      0.1605
    127  C         21.1480   33.9140   97.8780 C.2   197  PHE197      0.2264
    128  O         21.1620   35.1210   97.6260 O.2   197  PHE197     -0.2867
    129  CB        23.1970   33.2900   99.1340 C.3   197  PHE197      0.0534
    130  CG        24.5570   32.6500   99.1110 C.ar  197  PHE197     -0.0203
    131  CD1       24.7210   31.3340   99.5480 C.ar  197  PHE197     -0.0042
    132  CD2       25.6500   33.3880   98.6480 C.ar  197  PHE197     -0.0042
    133  CE1       25.9880   30.7430   99.5210 C.ar  197  PHE197     -0.0003
    134  CE2       26.9030   32.8180   98.6090 C.ar  197  PHE197     -0.0003
    135  CZ        27.0770   31.4960   99.0470 C.ar  197  PHE197     -0.0000
    136  N         18.6990   34.1500  100.8840 N.3   199  LEU199     -0.1301
    137  CA        18.5590   33.9430  102.3240 C.3   199  LEU199      0.1247
    138  C         17.2080   34.3110  102.9120 C.3   199  LEU199      0.2009
    139  O         16.9540   35.5430  102.8590 O.3   199  LEU199     -0.2188
    140  CB        19.6220   34.9130  102.9230 C.3   199  LEU199      0.0217
    141  CG        21.0110   34.7780  102.3290 C.3   199  LEU199      0.0015
    142  CD1       21.8930   35.9600  102.6780 C.3   199  LEU199      0.0000
    143  CD2       21.5710   33.4780  102.9130 C.3   199  LEU199      0.0000
    144  N         15.4930   34.9570  106.1190 N.3   201  PHE201     -0.1298
    145  CA        15.6010   35.1460  107.5890 C.3   201  PHE201      0.1290
    146  C         14.1600   35.1950  108.1100 C.3   201  PHE201      0.2013
    147  O         13.7500   36.3410  108.3800 O.3   201  PHE201     -0.2188
    148  CB        16.3160   36.4200  107.9810 C.3   201  PHE201      0.0480
    149  CG        17.5950   36.7450  107.3020 C.ar  201  PHE201     -0.0206
    150  CD1       17.5870   37.4380  106.0960 C.ar  201  PHE201     -0.0042
    151  CD2       18.8100   36.3870  107.8810 C.ar  201  PHE201     -0.0042
    152  CE1       18.7730   37.7620  105.4570 C.ar  201  PHE201     -0.0003
    153  CE2       20.0200   36.7040  107.2600 C.ar  201  PHE201     -0.0003
    154  CZ        19.9870   37.3940  106.0360 C.ar  201  PHE201     -0.0000
    155  N         20.9390   40.9520  112.2010 N.3   213  VAL213     -0.1245
    156  CA        21.6420   39.9420  111.3940 C.3   213  VAL213      0.1561
    157  C         21.8200   40.5690  109.9870 C.2   213  VAL213      0.2260
    158  O         22.9260   40.6240  109.4250 O.2   213  VAL213     -0.2867
    159  CB        20.8200   38.6430  111.3090 C.3   213  VAL213      0.0252
    160  CG1       21.5230   37.5790  110.4660 C.3   213  VAL213      0.0019
    161  CG2       20.3940   38.0770  112.6440 C.3   213  VAL213      0.0019
    162  N         24.9490   41.6560  108.1890 N.3   217  LEU217     -0.1245
    163  CA        25.4860   41.1430  106.9110 C.3   217  LEU217      0.1561
    164  C         25.8420   42.3310  106.0130 C.2   217  LEU217      0.2260
    165  O         27.0230   42.6480  105.8250 O.2   217  LEU217     -0.2867
    166  CB        24.5540   40.1190  106.2550 C.3   217  LEU217      0.0270
    167  CG        25.2230   39.3340  105.1200 C.3   217  LEU217      0.0019
    168  CD1       26.0120   38.1500  105.6630 C.3   217  LEU217      0.0001
    169  CD2       24.1670   38.8690  104.1270 C.3   217  LEU217      0.0001
    170  N         28.8250   44.4950  106.3630 N.3   220  GLN220     -0.1231
    171  CA        29.9500   43.5460  106.3540 C.3   220  GLN220      0.1698
    172  C         30.3260   43.1500  104.9330 C.2   220  GLN220      0.2592
    173  O         31.5480   43.0720  104.6470 O.2   220  GLN220     -0.2718
    174  CB        29.6900   42.3630  107.2700 C.3   220  GLN220      0.0381
    175  CG        30.7580   41.2860  107.2800 C.3   220  GLN220      0.0905
    176  CD        30.0630   39.9920  107.6830 C.2   220  GLN220      0.2608
    177  OE1       30.0890   39.5540  108.8260 O.2   220  GLN220     -0.2717
    178  NE2       29.3860   39.4210  106.6800 N.am  220  GLN220     -0.0878
    179  N         29.3020   42.9300  104.1070 N.am  221  VAL221     -0.1980
    180  CA        29.6070   42.5480  102.7100 C.3   221  VAL221      0.1595
    181  C         29.9000   43.8110  101.9170 C.2   221  VAL221      0.2287
    182  O         30.9770   43.8050  101.2790 O.2   221  VAL221     -0.2864
    183  CB        28.6350   41.5510  102.1010 C.3   221  VAL221      0.0276
    184  CG1       27.7780   40.8290  103.1360 C.3   221  VAL221      0.0022
    185  CG2       27.7810   42.1300  100.9940 C.3   221  VAL221      0.0022
    186  N         33.3850   44.5740  102.5170 N.3   224  PHE224     -0.1227
    187  CA        34.2400   43.6240  101.7900 C.3   224  PHE224      0.1736
    188  C         34.4560   44.1210  100.3540 C.2   224  PHE224      0.2595
    189  O         35.5920   44.2050   99.8780 O.2   224  PHE224     -0.2718
    190  CB        33.6470   42.2210  101.8120 C.3   224  PHE224      0.0547
    191  CG        34.2260   41.2500  100.8240 C.ar  224  PHE224     -0.0202
    192  CD1       35.4150   40.5800  101.1070 C.ar  224  PHE224     -0.0042
    193  CD2       33.5870   41.0080   99.6140 C.ar  224  PHE224     -0.0042
    194  CE1       35.9660   39.6840  100.2180 C.ar  224  PHE224     -0.0003
    195  CE2       34.1230   40.1060   98.6970 C.ar  224  PHE224     -0.0003
    196  CZ        35.3190   39.4410   99.0100 C.ar  224  PHE224     -0.0000
    197  N         33.3440   44.4160   99.7040 N.am  225  ARG225     -0.1980
    198  CA        33.3490   44.8920   98.3120 C.3   225  ARG225      0.1597
    199  C         34.1600   46.1710   98.2130 C.2   225  ARG225      0.2287
    200  O         35.2510   46.1350   97.6110 O.2   225  ARG225     -0.2864
    201  CB        31.9600   45.0670   97.7160 C.3   225  ARG225      0.0334
    202  CG        31.0880   43.8120   97.7520 C.3   225  ARG225      0.0492
    203  CD        29.8800   43.9720   96.9150 C.3   225  ARG225      0.2205
    204  NE        29.0180   42.7950   96.7830 N.pl3 225  ARG225     -0.0865
    205  CZ        27.6820   42.9850   96.7220 C.cat 225  ARG225      0.5346
    206  NH1       27.1840   44.2280   96.7640 N.pl3 225  ARG225      0.1354
    207  NH2       26.8610   41.9390   96.6550 N.pl3 225  ARG225      0.1354
@<TRIPOS>BOND
     1    13    14    1
     2    13    10    1
     3    14    16   am
     4    14    15    2
     5    10     9    1
     6    10    11    1
     7    23    24    1
     8    23    22    1
     9     9     3   am
    10    24    25    1
    11    17    11   am
    12    17    18    1
    13   120   119    2
    14    20    19    2
    15    11    12    2
    16   119   118    1
    17     1     2    1
    18    21    22    1
    19    21    18    1
    20     3     4    2
    21     3     2    1
    22    18    19    1
    23   117   118    1
    24    19    26   am
    25     2     5    1
    26   118   121    1
    27   121   122    1
    28    26    27    1
    29    27    28    1
    30    27    30    1
    31    28    29    2
    32     5     6    1
    33    32    34   ar
    34    32    31   ar
    35   122   124   am
    36   122   123    2
    37    34    35   ar
    38     6     7    1
    39    30    31    1
    40    31    33   ar
    41   207   205    1
    42   125   126    1
    43   205   206    1
    44   205   204    2
    45   204   203    1
    46    40    41    1
    47   203   202    1
    48    43    42    2
    49    35    33   ar
    50    35    37   ar
    51    42    41    1
    52   200   199    2
    53   128   127    2
    54    33    36   ar
    55   201   202    1
    56   201   198    1
    57    41    44    1
    58   126   127    1
    59   126   129    1
    60     7     8    1
    61   199   198    1
    62    37    39   ar
    63   198   197    1
    64   134   132   ar
    65   134   135   ar
    66   132   130   ar
    67   195   196   ar
    68   195   193   ar
    69    36    38   ar
    70   196   194   ar
    71   135   133   ar
    72   130   129    1
    73   130   131   ar
    74    44    45    1
    75    47    45   ar
    76    47    49   ar
    77    45    46   ar
    78    39    38   ar
    79    49    50   ar
    80   133   131   ar
    81   193   191   ar
    82   197   188   am
    83    46    48   ar
    84    50    48   ar
    85    50    51    1
    86   189   188    2
    87   194   192   ar
    88   188   187    1
    89   191   192   ar
    90   191   190    1
    91   136   137    1
    92   185   183    1
    93   182   181    2
    94   115   114    2
    95   187   190    1
    96   187   186    1
    97   181   180    1
    98   108   107    2
    99   183   180    1
   100   183   184    1
   101   137   138    1
   102   137   140    1
   103   141   142    1
   104   141   143    1
   105   141   140    1
   106   114   113    1
   107   113   112    1
   108   113   116    1
   109   180   179    1
   110   139   138    1
   111   111   109    1
   112   107   112   am
   113   107   106    1
   114   109   106    1
   115   109   110    1
   116   106   105    1
   117   179   172   am
   118   169   167    1
   119   173   172    2
   120   172   171    1
   121   167   168    1
   122   167   166    1
   123   152   154   ar
   124   152   150   ar
   125   165   164    2
   126   164   163    1
   127   154   153   ar
   128   150   149   ar
   129   144   145    1
   130   102   101    2
   131   166   163    1
   132    94    93    2
   133    72    70    1
   134   171   170    1
   135   171   174    1
   136   178   176   am
   137    58    56    1
   138   163   162    1
   139   101   100    1
   140   153   151   ar
   141   174   175    1
   142   175   176    1
   143   149   151   ar
   144   149   148    1
   145    93    92    1
   146    93    99   am
   147    66    67    1
   148    52    53    1
   149    70    67    1
   150    70    71    1
   151   145   148    1
   152   145   146    1
   153   100    99    1
   154   100   103    1
   155   176   177    2
   156    56    53    1
   157    56    57    1
   158    92    95    1
   159    92    91    1
   160    88    87    2
   161    96    98    1
   162    96    97    1
   163    96    95    1
   164   146   147    1
   165    67    68    1
   166    53    54    1
   167   103   104    1
   168    87    91   am
   169    87    86    1
   170   158   157    2
   171    84    83    1
   172    68    69    2
   173    54    55    2
   174   157   156    1
   175    86    89    1
   176    86    85    1
   177    89    90    1
   178   160   159    1
   179    83    81   ar
   180    83    82   ar
   181    81    79   ar
   182   159   156    1
   183   159   161    1
   184    82    80   ar
   185   156   155    1
   186    79    78   ar
   187    76    75    2
   188    65    63    1
   189    80    78   ar
   190    78    77    1
   191    75    74    1
   192    63    64    1
   193    63    60    1
   194    74    77    1
   195    74    73    1
   196    59    60    1
   197    60    61    1
   198    61    62    2
