@<TRIPOS>MOLECULE
tmp/1fvtA00.pdb
 149 142 0 0 0
SMALL
GASTEIGER

@<TRIPOS>ATOM
      1  N         41.2480   14.3140   -6.4740 N.3    10  ILE10      -0.1245
      2  CA        40.1600   13.4010   -6.7970 C.3    10  ILE10       0.1561
      3  C         40.2490   12.0680   -6.0710 C.2    10  ILE10       0.2260
      4  O         39.2350   11.5200   -5.6430 O.2    10  ILE10      -0.2867
      5  CB        40.1080   13.1210   -8.3100 C.3    10  ILE10       0.0252
      6  CG1       39.8900   14.4250   -9.0780 C.3    10  ILE10       0.0019
      7  CG2       38.9970   12.1370   -8.6140 C.3    10  ILE10       0.0019
      8  CD1       38.5870   15.1300   -8.7420 C.3    10  ILE10       0.0001
      9  N         45.6250   11.2380   -7.6070 N.3    18  VAL18      -0.1245
     10  CA        45.0190   11.7230   -8.8340 C.3    18  VAL18       0.1561
     11  C         44.3850   13.0740   -8.5500 C.2    18  VAL18       0.2260
     12  O         43.6840   13.2510   -7.5480 O.2    18  VAL18      -0.2867
     13  CB        43.9290   10.7590   -9.3440 C.3    18  VAL18       0.0252
     14  CG1       43.3410   11.2820  -10.6470 C.3    18  VAL18       0.0019
     15  CG2       44.5130    9.3710   -9.5410 C.3    18  VAL18       0.0019
     16  N         42.7920   14.7360  -15.8070 N.3    31  ALA31      -0.1245
     17  CA        43.0490   14.0190  -14.5730 C.3    31  ALA31       0.1562
     18  C         44.5610   13.8840  -14.5150 C.2    31  ALA31       0.2260
     19  O         45.1730   13.2700  -15.3950 O.2    31  ALA31      -0.2867
     20  CB        42.3890   12.6500  -14.5970 C.3    31  ALA31       0.0290
     21  N         47.7930   12.4000  -12.7550 N.3    33  LYS33      -0.1245
     22  CA        48.2420   11.3230  -11.8790 C.3    33  LYS33       0.1561
     23  C         49.7190   11.5140  -11.5270 C.2    33  LYS33       0.2260
     24  O         50.6040   11.3350  -12.3660 O.2    33  LYS33      -0.2867
     25  CB        48.0410    9.9620  -12.5560 C.3    33  LYS33       0.0271
     26  CG        48.0260    8.7730  -11.5930 C.3    33  LYS33       0.0035
     27  CD        47.8670    7.4440  -12.3380 C.3    33  LYS33       0.0206
     28  CE        47.5510    6.2900  -11.3830 C.3    33  LYS33       0.1093
     29  NZ        48.5060    6.2100  -10.2320 N.3    33  LYS33      -0.1314
     30  N         40.0030    4.8790  -20.8180 N.3    57  VAL57      -0.1245
     31  CA        40.3120    6.2520  -20.4540 C.3    57  VAL57       0.1561
     32  C         41.6010    6.6080  -21.1840 C.2    57  VAL57       0.2260
     33  O         42.6280    5.9510  -21.0170 O.2    57  VAL57      -0.2867
     34  CB        40.5050    6.4000  -18.9340 C.3    57  VAL57       0.0252
     35  CG1       40.9300    7.8210  -18.5970 C.3    57  VAL57       0.0019
     36  CG2       39.1980    6.0640  -18.2160 C.3    57  VAL57       0.0019
     37  N         45.5550   12.1030  -18.0150 N.3    73  PHE73      -0.1227
     38  CA        44.4860   11.3270  -18.6330 C.3    73  PHE73       0.1736
     39  C         43.2630   12.2080  -18.8660 C.2    73  PHE73       0.2595
     40  O         43.1540   13.2990  -18.2940 O.2    73  PHE73      -0.2718
     41  CB        44.0480   10.1720  -17.7230 C.3    73  PHE73       0.0547
     42  CG        45.1150    9.1440  -17.4470 C.ar   73  PHE73      -0.0202
     43  CD1       45.9700    9.2810  -16.3560 C.ar   73  PHE73      -0.0042
     44  CD2       45.2300    8.0100  -18.2490 C.ar   73  PHE73      -0.0042
     45  CE1       46.9300    8.2910  -16.0610 C.ar   73  PHE73      -0.0003
     46  CE2       46.1800    7.0190  -17.9670 C.ar   73  PHE73      -0.0003
     47  CZ        47.0320    7.1590  -16.8700 C.ar   73  PHE73      -0.0000
     48  N         42.3420   11.7250  -19.6980 N.am   74  GLU74      -0.1965
     49  CA        41.1090   12.4560  -19.9480 C.3    74  GLU74       0.1733
     50  C         40.3540   12.3750  -18.6250 C.2    74  GLU74       0.2616
     51  O         40.5670   11.4550  -17.8320 O.2    74  GLU74      -0.2715
     52  CB        40.2800   11.8000  -21.0580 C.3    74  GLU74       0.0429
     53  CG        39.6830   10.4520  -20.6930 C.3    74  GLU74       0.1163
     54  CD        38.7720    9.8850  -21.7810 C.2    74  GLU74       0.3649
     55  OE1       37.6670   10.4220  -21.9950 O.co2  74  GLU74      -0.2457
     56  OE2       39.1630    8.9000  -22.4290 O.co2  74  GLU74      -0.2457
     57  N         39.4650   13.3290  -18.3950 N.am   75  PHE75      -0.1960
     58  CA        38.7070   13.3830  -17.1560 C.3    75  PHE75       0.1771
     59  C         37.2320   12.9840  -17.3060 C.2    75  PHE75       0.2619
     60  O         36.5610   13.3820  -18.2630 O.2    75  PHE75      -0.2715
     61  CB        38.8070   14.8020  -16.5850 C.3    75  PHE75       0.0574
     62  CG        37.9520   15.0320  -15.3740 C.ar   75  PHE75      -0.0200
     63  CD1       38.4320   14.7440  -14.0950 C.ar   75  PHE75      -0.0042
     64  CD2       36.6490   15.5120  -15.5130 C.ar   75  PHE75      -0.0042
     65  CE1       37.6240   14.9280  -12.9720 C.ar   75  PHE75      -0.0003
     66  CE2       35.8410   15.6960  -14.4090 C.ar   75  PHE75      -0.0003
     67  CZ        36.3250   15.4030  -13.1280 C.ar   75  PHE75      -0.0000
     68  N         36.7490   12.1770  -16.3630 N.am   76  LEU76      -0.1963
     69  CA        35.3490   11.7660  -16.3260 C.3    76  LEU76       0.1728
     70  C         34.8960   12.1590  -14.9330 C.2    76  LEU76       0.2616
     71  O         35.6870   12.1070  -13.9900 O.2    76  LEU76      -0.2715
     72  CB        35.1900   10.2610  -16.5690 C.3    76  LEU76       0.0311
     73  CG        35.1630    9.8970  -18.0620 C.3    76  LEU76       0.0022
     74  CD1       36.5810    9.8840  -18.6060 C.3    76  LEU76       0.0001
     75  CD2       34.5220    8.5300  -18.2700 C.3    76  LEU76       0.0001
     76  N         33.6320   12.5510  -14.7950 N.am   77  HIS77      -0.1959
     77  CA        33.1280   13.0330  -13.5100 C.3    77  HIS77       0.1787
     78  C         32.7630   12.0630  -12.3960 C.2    77  HIS77       0.2620
     79  O         32.6480   12.4760  -11.2470 O.2    77  HIS77      -0.2715
     80  CB        31.9260   13.9550  -13.7420 C.3    77  HIS77       0.0785
     81  CG        32.2660   15.2030  -14.4920 C.ar   77  HIS77       0.0821
     82  ND1       32.4340   15.2260  -15.8600 N.ar   77  HIS77      -0.2267
     83  CD2       32.5320   16.4580  -14.0570 C.ar   77  HIS77       0.1154
     84  CE1       32.7930   16.4410  -16.2360 C.ar   77  HIS77       0.1986
     85  NE2       32.8610   17.2070  -15.1610 N.ar   77  HIS77      -0.2212
     86  N         32.5880   10.7870  -12.7070 N.am   78  GLN78      -0.1963
     87  CA        32.1910    9.8560  -11.6650 C.3    78  GLN78       0.1733
     88  C         32.6740    8.4260  -11.8940 C.2    78  GLN78       0.2616
     89  O         32.8350    7.9950  -13.0390 O.2    78  GLN78      -0.2715
     90  CB        30.6620    9.8870  -11.5650 C.3    78  GLN78       0.0408
     91  CG        30.0900    9.2310  -10.3270 C.3    78  GLN78       0.0908
     92  CD        28.6090    9.5100  -10.1700 C.2    78  GLN78       0.2608
     93  OE1       27.7790    8.6090  -10.2920 O.2    78  GLN78      -0.2717
     94  NE2       28.2700   10.7700   -9.9060 N.am   78  GLN78      -0.0878
     95  N         32.9270    7.6990  -10.8050 N.am   79  ASP79      -0.1971
     96  CA        33.3410    6.3050  -10.9210 C.3    79  ASP79       0.1709
     97  C         32.1410    5.4130  -10.6120 C.2    79  ASP79       0.2293
     98  O         31.1490    5.8700  -10.0320 O.2    79  ASP79      -0.2864
     99  CB        34.5180    5.9760   -9.9910 C.3    79  ASP79       0.1436
    100  CG        34.1920    6.1510   -8.5130 C.2    79  ASP79       0.3671
    101  OD1       33.1330    5.6780   -8.0490 O.co2  79  ASP79      -0.2456
    102  OD2       35.0240    6.7500   -7.8040 O.co2  79  ASP79      -0.2456
    103  N         30.9210    5.0990   -6.7840 N.3    82  LYS82      -0.1245
    104  CA        30.0290    6.1390   -6.2850 C.3    82  LYS82       0.1561
    105  C         28.6330    5.9830   -6.8780 C.2    82  LYS82       0.2260
    106  O         27.6320    6.1500   -6.1820 O.2    82  LYS82      -0.2867
    107  CB        30.5610    7.5340   -6.6230 C.3    82  LYS82       0.0271
    108  CG        29.6000    8.6460   -6.1920 C.3    82  LYS82       0.0035
    109  CD        30.2350   10.0280   -6.2470 C.3    82  LYS82       0.0206
    110  CE        29.3550   11.0590   -5.5390 C.3    82  LYS82       0.1093
    111  NZ        30.0380   12.3840   -5.3700 N.3    82  LYS82      -0.1314
    112  N         36.1630    1.2330   -8.5060 N.3   124  GLN124     -0.1231
    113  CA        36.8550    2.5170   -8.4600 C.3   124  GLN124      0.1698
    114  C         37.5850    2.8550   -9.7590 C.2   124  GLN124      0.2592
    115  O         37.8090    4.0270  -10.0520 O.2   124  GLN124     -0.2718
    116  CB        37.8670    2.5420   -7.3070 C.3   124  GLN124      0.0381
    117  CG        37.2740    2.4210   -5.9030 C.3   124  GLN124      0.0905
    118  CD        36.6270    1.0660   -5.6280 C.2   124  GLN124      0.2608
    119  OE1       36.6820    0.1540   -6.4530 O.2   124  GLN124     -0.2717
    120  NE2       36.0290    0.9260   -4.4510 N.am  124  GLN124     -0.0878
    121  N         37.9620    1.8320  -10.5270 N.am  125  ASN125     -0.1974
    122  CA        38.6670    2.0320  -11.7980 C.3   125  ASN125      0.1688
    123  C         37.7340    2.1870  -13.0010 C.2   125  ASN125      0.2292
    124  O         38.1930    2.3050  -14.1380 O.2   125  ASN125     -0.2864
    125  CB        39.6170    0.8600  -12.0920 C.3   125  ASN125      0.1181
    126  CG        40.8470    0.8700  -11.2170 C.2   125  ASN125      0.2629
    127  OD1       41.3420    1.9320  -10.8340 O.2   125  ASN125     -0.2716
    128  ND2       41.3660   -0.3150  -10.9120 N.am  125  ASN125     -0.0877
    129  N         35.0450    4.4500  -14.8630 N.3   127  LEU127     -0.1245
    130  CA        34.5020    5.8050  -14.9380 C.3   127  LEU127      0.1561
    131  C         33.3140    5.9100  -15.8910 C.2   127  LEU127      0.2260
    132  O         33.2800    5.2600  -16.9430 O.2   127  LEU127     -0.2867
    133  CB        35.6030    6.7760  -15.3780 C.3   127  LEU127      0.0270
    134  CG        36.9000    6.6650  -14.5620 C.3   127  LEU127      0.0019
    135  CD1       37.9610    7.6100  -15.1280 C.3   127  LEU127      0.0001
    136  CD2       36.6190    6.9960  -13.0950 C.3   127  LEU127      0.0001
    137  N         39.9000    2.6210  -16.4700 N.3   137  ALA137     -0.1231
    138  CA        41.0030    3.5030  -16.1030 C.3   137  ALA137      0.1694
    139  C         42.1230    2.6790  -15.4670 C.2   137  ALA137      0.2592
    140  O         41.8620    1.6300  -14.8770 O.2   137  ALA137     -0.2718
    141  CB        40.5130    4.5660  -15.1240 C.3   137  ALA137      0.0304
    142  N         43.3590    3.1660  -15.5810 N.am  138  ASP138     -0.1974
    143  CA        44.5410    2.4870  -15.0310 C.3   138  ASP138      0.1709
    144  C         45.0000    1.2430  -15.7840 C.2   138  ASP138      0.2293
    145  O         45.8390    0.4930  -15.2890 O.2   138  ASP138     -0.2864
    146  CB        44.3170    2.0920  -13.5720 C.3   138  ASP138      0.1436
    147  CG        44.8930    3.0950  -12.6070 C.2   138  ASP138      0.3671
    148  OD1       45.7400    3.9050  -13.0390 O.co2 138  ASP138     -0.2456
    149  OD2       44.5150    3.0680  -11.4140 O.co2 138  ASP138     -0.2456
@<TRIPOS>BOND
     1    56    54   ar
     2    55    54   ar
     3    54    53    1
     4    32    33    2
     5    32    31    1
     6    52    53    1
     7    52    49    1
     8    30    31    1
     9    31    34    1
    10    49    48    1
    11    49    50    1
    12    48    39   am
    13    34    35    1
    14    34    36    1
    15    39    38    1
    16    39    40    2
    17    38    37    1
    18    38    41    1
    19    50    57   am
    20    50    51    2
    21    74    73    1
    22    57    58    1
    23    75    73    1
    24    60    59    2
    25    44    46   ar
    26    44    42   ar
    27    73    72    1
    28    46    47   ar
    29    41    42    1
    30    42    43   ar
    31    59    58    1
    32    59    68   am
    33    58    61    1
    34   132   131    2
    35    47    45   ar
    36    61    62    1
    37    72    69    1
    38   137   138    1
    39    68    69    1
    40    43    45   ar
    41    69    70    1
    42    84    82   ar
    43    84    85   ar
    44   138   139    1
    45   138   141    1
    46   131   130    1
    47    82    81   ar
    48    16    17    1
    49   144   145    2
    50   144   143    1
    51   142   139   am
    52   142   143    1
    53    64    62   ar
    54    64    66   ar
    55   139   140    2
    56    19    18    2
    57   133   130    1
    58   133   134    1
    59    62    63   ar
    60    85    83   ar
    61   135   134    1
    62   143   146    1
    63   130   129    1
    64    70    76   am
    65    70    71    2
    66    76    77    1
    67    20    17    1
    68    17    18    1
    69   134   136    1
    70    81    83   ar
    71    81    80    1
    72    66    67   ar
    73   124   123    2
    74    63    65   ar
    75    80    77    1
    76   146   147    1
    77    77    78    1
    78    67    65   ar
    79   148   147   ar
    80    89    88    2
    81   123   122    1
    82    21    22    1
    83    86    78   am
    84    86    87    1
    85   147   149   ar
    86    25    22    1
    87    25    26    1
    88    78    79    2
    89    24    23    2
    90    27    26    1
    91    27    28    1
    92   125   122    1
    93   125   126    1
    94    88    87    1
    95    88    95   am
    96    22    23    1
    97   122   121    1
    98    87    90    1
    99    90    91    1
   100    28    29    1
   101   126   128   am
   102   126   127    2
   103    96    95    1
   104    96    97    1
   105    96    99    1
   106    14    13    1
   107    97    98    2
   108   121   114   am
   109    91    92    1
   110    93    92    2
   111    92    94   am
   112   115   114    2
   113    99   100    1
   114   114   113    1
   115    15    13    1
   116    13    10    1
   117     6     8    1
   118     6     5    1
   119    10    11    1
   120    10     9    1
   121     7     5    1
   122    11    12    2
   123   100   101   ar
   124   100   102   ar
   125   112   113    1
   126   113   116    1
   127     5     2    1
   128   116   117    1
   129   105   104    1
   130   105   106    2
   131     2     1    1
   132     2     3    1
   133   103   104    1
   134   107   104    1
   135   107   108    1
   136   119   118    2
   137   109   108    1
   138   109   110    1
   139     3     4    2
   140   117   118    1
   141   118   120   am
   142   110   111    1
