@<TRIPOS>MOLECULE
tmp/1fvvC00.pdb
 191 183 0 0 0
SMALL
GASTEIGER

@<TRIPOS>ATOM
      1  N        -31.9880  167.0680   96.2450 N.3     8  GLU8       -0.1231
      2  CA       -31.6510  166.1010   95.2020 C.3     8  GLU8        0.1699
      3  C        -31.2510  166.7940   93.8980 C.2     8  GLU8        0.2592
      4  O        -31.8690  167.7820   93.5000 O.2     8  GLU8       -0.2718
      5  CB       -32.8450  165.1790   94.9440 C.3     8  GLU8        0.0402
      6  CG       -33.8730  165.7440   93.9790 C.3     8  GLU8        0.1161
      7  CD       -35.2940  165.3670   94.3460 C.2     8  GLU8        0.3649
      8  OE1      -36.1990  165.5520   93.4970 O.co2   8  GLU8       -0.2457
      9  OE2      -35.5070  164.8980   95.4880 O.co2   8  GLU8       -0.2457
     10  N        -30.2200  166.2760   93.2330 N.am    9  LYS9       -0.1966
     11  CA       -29.7680  166.8500   91.9670 C.3     9  LYS9        0.1728
     12  C        -30.9060  166.7310   90.9530 C.2     9  LYS9        0.2616
     13  O        -31.2520  165.6310   90.5250 O.2     9  LYS9       -0.2715
     14  CB       -28.5200  166.1070   91.4680 C.3     9  LYS9        0.0311
     15  CG       -27.9790  166.5960   90.1320 C.3     9  LYS9        0.0038
     16  CD       -26.5250  166.1610   89.9030 C.3     9  LYS9        0.0206
     17  CE       -26.3790  164.6620   89.6840 C.3     9  LYS9        0.1093
     18  NZ       -24.9650  164.2760   89.3930 N.3     9  LYS9       -0.1314
     19  N        -31.4970  167.8620   90.5810 N.am   10  ILE10      -0.1963
     20  CA       -32.6080  167.8580   89.6340 C.3    10  ILE10       0.1727
     21  C        -32.1990  168.2210   88.2120 C.2    10  ILE10       0.2616
     22  O        -33.0490  168.3910   87.3350 O.2    10  ILE10      -0.2715
     23  CB       -33.7220  168.8280   90.0720 C.3    10  ILE10       0.0290
     24  CG1      -33.1620  170.2480   90.1800 C.3    10  ILE10       0.0022
     25  CG2      -34.3150  168.3690   91.3950 C.3    10  ILE10       0.0023
     26  CD1      -34.2090  171.2990   90.4760 C.3    10  ILE10       0.0001
     27  N        -30.8960  168.3410   87.9860 N.am   11  GLY11      -0.1955
     28  CA       -30.4040  168.6840   86.6660 C.3    11  GLY11       0.1869
     29  C        -28.9430  169.0690   86.7330 C.2    11  GLY11       0.2309
     30  O        -28.4800  169.5910   87.7450 O.2    11  GLY11      -0.2863
     31  N        -23.6310  174.0780   82.1690 N.3    15  TYR15      -0.1241
     32  CA       -23.6580  175.2700   83.0180 C.3    15  TYR15       0.1605
     33  C        -23.3960  174.9440   84.4850 C.2    15  TYR15       0.2264
     34  O        -23.3530  175.8380   85.3300 O.2    15  TYR15      -0.2867
     35  CB       -25.0050  175.9810   82.8740 C.3    15  TYR15       0.0534
     36  CG       -26.1480  174.9950   82.9110 C.ar   15  TYR15      -0.0201
     37  CD1      -26.6780  174.5340   84.1040 C.ar   15  TYR15      -0.0009
     38  CD2      -26.6910  174.5520   81.7160 C.ar   15  TYR15      -0.0009
     39  CE1      -27.7300  173.6340   84.0980 C.ar   15  TYR15       0.0417
     40  CE2      -27.7370  173.6480   81.6980 C.ar   15  TYR15       0.0417
     41  CZ       -28.2410  173.1970   82.8970 C.ar   15  TYR15       0.1957
     42  OH       -29.2860  172.3140   82.8580 O.3    15  TYR15      -0.2866
     43  N        -27.5740  171.5610   89.0540 N.3    18  VAL18      -0.1245
     44  CA       -28.7160  172.2580   89.6440 C.3    18  VAL18       0.1561
     45  C        -29.4320  171.3630   90.6590 C.2    18  VAL18       0.2260
     46  O        -30.0910  170.3940   90.2840 O.2    18  VAL18      -0.2867
     47  CB       -29.7400  172.6590   88.5720 C.3    18  VAL18       0.0252
     48  CG1      -30.8930  173.4070   89.2080 C.3    18  VAL18       0.0019
     49  CG2      -29.0730  173.5030   87.5200 C.3    18  VAL18       0.0019
     50  N        -34.2570  176.2030   93.7070 N.3    31  ALA31      -0.1245
     51  CA       -33.4450  175.4150   92.7840 C.3    31  ALA31       0.1562
     52  C        -32.0770  176.1070   92.7810 C.2    31  ALA31       0.2260
     53  O        -31.9790  177.2920   92.4700 O.2    31  ALA31      -0.2867
     54  CB       -34.0530  175.4430   91.3920 C.3    31  ALA31       0.0290
     55  N        -28.5040  176.6200   91.1680 N.3    33  LYS33      -0.1245
     56  CA       -27.6540  176.3840   90.0090 C.3    33  LYS33       0.1561
     57  C        -26.2420  176.7040   90.4800 C.2    33  LYS33       0.2260
     58  O        -25.9110  177.8550   90.7470 O.2    33  LYS33      -0.2867
     59  CB       -28.0470  177.2910   88.8480 C.3    33  LYS33       0.0271
     60  CG       -27.1320  177.1500   87.6560 C.3    33  LYS33       0.0035
     61  CD       -27.7070  177.8220   86.4250 C.3    33  LYS33       0.0206
     62  CE       -28.9790  177.1270   85.9620 C.3    33  LYS33       0.1093
     63  NZ       -29.5230  177.7490   84.7250 N.3    33  LYS33      -0.1314
     64  N        -39.4520  181.2620   84.8090 N.3    64  VAL64      -0.1245
     65  CA       -38.8720  180.8670   86.0880 C.3    64  VAL64       0.1561
     66  C        -38.1030  182.0600   86.6880 C.2    64  VAL64       0.2260
     67  O        -37.2900  182.7020   86.0170 O.2    64  VAL64      -0.2867
     68  CB       -37.9510  179.6310   85.9130 C.3    64  VAL64       0.0252
     69  CG1      -36.7480  180.0010   85.0520 C.3    64  VAL64       0.0019
     70  CG2      -37.5240  179.0940   87.2680 C.3    64  VAL64       0.0019
     71  N        -32.9020  180.0690   92.2760 N.3    80  PHE80      -0.1227
     72  CA       -34.1060  180.2100   91.4620 C.3    80  PHE80       0.1736
     73  C        -35.3270  179.6390   92.1640 C.2    80  PHE80       0.2595
     74  O        -35.2100  178.8740   93.1270 O.2    80  PHE80      -0.2718
     75  CB       -33.9710  179.4210   90.1750 C.3    80  PHE80       0.0547
     76  CG       -32.8990  179.8950   89.2630 C.ar   80  PHE80      -0.0202
     77  CD1      -33.1940  180.7930   88.2370 C.ar   80  PHE80      -0.0042
     78  CD2      -31.6100  179.3760   89.3630 C.ar   80  PHE80      -0.0042
     79  CE1      -32.2240  181.1610   87.3130 C.ar   80  PHE80      -0.0003
     80  CE2      -30.6290  179.7340   88.4490 C.ar   80  PHE80      -0.0003
     81  CZ       -30.9350  180.6290   87.4160 C.ar   80  PHE80      -0.0000
     82  N        -36.5040  179.9940   91.6590 N.am   81  GLU81      -0.1965
     83  CA       -37.7330  179.4480   92.2060 C.3    81  GLU81       0.1733
     84  C        -37.6690  177.9990   91.7200 C.2    81  GLU81       0.2616
     85  O        -37.0510  177.7250   90.6970 O.2    81  GLU81      -0.2715
     86  CB       -38.9630  180.1510   91.6120 C.3    81  GLU81       0.0429
     87  CG       -39.5230  179.4990   90.3600 C.3    81  GLU81       0.1163
     88  CD       -40.8180  180.1390   89.8630 C.2    81  GLU81       0.3649
     89  OE1      -40.7590  181.1770   89.1710 O.co2  81  GLU81      -0.2457
     90  OE2      -41.9030  179.5970   90.1640 O.co2  81  GLU81      -0.2457
     91  N        -38.2910  177.0740   92.4450 N.am   82  PHE82      -0.1960
     92  CA       -38.2770  175.6630   92.0550 C.3    82  PHE82       0.1771
     93  C        -39.5750  175.1640   91.4070 C.2    82  PHE82       0.2619
     94  O        -40.6720  175.5810   91.7710 O.2    82  PHE82      -0.2715
     95  CB       -37.9680  174.7940   93.2790 C.3    82  PHE82       0.0574
     96  CG       -38.1000  173.3140   93.0290 C.ar   82  PHE82      -0.0200
     97  CD1      -37.1800  172.6400   92.2290 C.ar   82  PHE82      -0.0042
     98  CD2      -39.1490  172.5870   93.5950 C.ar   82  PHE82      -0.0042
     99  CE1      -37.3050  171.2580   92.0000 C.ar   82  PHE82      -0.0003
    100  CE2      -39.2800  171.2110   93.3710 C.ar   82  PHE82      -0.0003
    101  CZ       -38.3580  170.5460   92.5730 C.ar   82  PHE82      -0.0000
    102  N        -39.4360  174.2880   90.4190 N.am   83  LEU83      -0.1963
    103  CA       -40.5910  173.6770   89.7720 C.3    83  LEU83       0.1728
    104  C        -40.3630  172.1740   89.7890 C.2    83  LEU83       0.2616
    105  O        -39.2290  171.7010   89.7510 O.2    83  LEU83      -0.2715
    106  CB       -40.8060  174.1930   88.3540 C.3    83  LEU83       0.0311
    107  CG       -41.7280  175.4130   88.3590 C.3    83  LEU83       0.0022
    108  CD1      -40.8990  176.6470   88.6610 C.3    83  LEU83       0.0001
    109  CD2      -42.4380  175.5570   87.0250 C.3    83  LEU83       0.0001
    110  N        -41.4550  171.4290   89.8450 N.am   84  HIS84      -0.1959
    111  CA       -41.4110  169.9820   89.9710 C.3    84  HIS84       0.1787
    112  C        -40.8870  169.1120   88.8410 C.2    84  HIS84       0.2620
    113  O        -40.2470  168.0910   89.1030 O.2    84  HIS84      -0.2715
    114  CB       -42.8060  169.4990   90.3490 C.3    84  HIS84       0.0785
    115  CG       -43.4850  170.3670   91.3620 C.ar   84  HIS84       0.0821
    116  ND1      -43.0940  170.4190   92.6840 N.ar   84  HIS84      -0.2267
    117  CD2      -44.5150  171.2400   91.2410 C.ar   84  HIS84       0.1154
    118  CE1      -43.8530  171.2840   93.3330 C.ar   84  HIS84       0.1986
    119  NE2      -44.7230  171.7970   92.4800 N.ar   84  HIS84      -0.2212
    120  N        -41.1280  169.5040   87.5950 N.am   85  GLN85      -0.1963
    121  CA       -40.7270  168.6500   86.4830 C.3    85  GLN85       0.1733
    122  C        -40.6720  169.3830   85.1410 C.2    85  GLN85       0.2616
    123  O        -41.3950  170.3640   84.9370 O.2    85  GLN85      -0.2715
    124  CB       -41.7500  167.5150   86.4270 C.3    85  GLN85       0.0408
    125  CG       -41.5540  166.4300   85.4020 C.3    85  GLN85       0.0908
    126  CD       -42.7140  165.4400   85.4340 C.2    85  GLN85       0.2608
    127  OE1      -43.8130  165.7310   84.9480 O.2    85  GLN85      -0.2717
    128  NE2      -42.4790  164.2750   86.0300 N.am   85  GLN85      -0.0878
    129  N        -39.8210  168.9180   84.2250 N.am   86  ASP86      -0.1971
    130  CA       -39.7520  169.5610   82.9170 C.3    86  ASP86       0.1709
    131  C        -40.7370  168.9050   81.9590 C.2    86  ASP86       0.2293
    132  O        -41.1890  167.7940   82.2000 O.2    86  ASP86      -0.2864
    133  CB       -38.3220  169.5460   82.3310 C.3    86  ASP86       0.1436
    134  CG       -37.7430  168.1490   82.1660 C.2    86  ASP86       0.3671
    135  OD1      -38.4800  167.2220   81.7770 O.co2  86  ASP86      -0.2456
    136  OD2      -36.5290  167.9860   82.4040 O.co2  86  ASP86      -0.2456
    137  N        -40.0080  164.9840   80.6890 N.3    89  LYS89      -0.1245
    138  CA       -40.4250  163.9100   81.5780 C.3    89  LYS89       0.1561
    139  C        -41.9410  163.8460   81.6820 C.2    89  LYS89       0.2260
    140  O        -42.4940  162.8600   82.1540 O.2    89  LYS89      -0.2867
    141  CB       -39.8230  164.1020   82.9720 C.3    89  LYS89       0.0271
    142  CG       -40.2170  163.0100   83.9640 C.3    89  LYS89       0.0035
    143  CD       -39.5090  163.1730   85.3040 C.3    89  LYS89       0.0206
    144  CE       -39.9600  162.1280   86.3250 C.3    89  LYS89       0.1093
    145  NZ       -39.2750  162.2830   87.6470 N.3    89  LYS89      -0.1314
    146  N        -37.0290  170.0680   77.5490 N.3   131  GLN131     -0.1231
    147  CA       -36.2480  169.9770   78.7820 C.3   131  GLN131      0.1698
    148  C        -36.0590  171.3340   79.4810 C.2   131  GLN131      0.2592
    149  O        -35.7390  171.3840   80.6720 O.2   131  GLN131     -0.2718
    150  CB       -34.8730  169.3570   78.4970 C.3   131  GLN131      0.0381
    151  CG       -34.9020  167.9990   77.7820 C.3   131  GLN131      0.0905
    152  CD       -35.3150  168.0800   76.2990 C.2   131  GLN131      0.2608
    153  OE1      -35.3900  167.0540   75.6110 O.2   131  GLN131     -0.2717
    154  NE2      -35.5790  169.2940   75.8070 N.am  131  GLN131     -0.0878
    155  N        -36.2580  172.4290   78.7440 N.am  132  ASN132     -0.1974
    156  CA       -36.1040  173.7740   79.3050 C.3   132  ASN132      0.1688
    157  C        -37.4150  174.4240   79.7530 C.2   132  ASN132      0.2292
    158  O        -37.4080  175.5370   80.2690 O.2   132  ASN132     -0.2864
    159  CB       -35.4100  174.7150   78.3060 C.3   132  ASN132      0.1181
    160  CG       -33.9170  174.4300   78.1510 C.2   132  ASN132      0.2629
    161  OD1      -33.2240  174.0690   79.1100 O.2   132  ASN132     -0.2716
    162  ND2      -33.4140  174.6190   76.9370 N.am  132  ASN132     -0.0877
    163  N        -40.4110  174.3290   82.3290 N.3   134  LEU134     -0.1245
    164  CA       -40.7960  173.7350   83.5980 C.3   134  LEU134      0.1561
    165  C        -42.2870  173.8640   83.8940 C.2   134  LEU134      0.2260
    166  O        -42.9430  174.8140   83.4640 O.2   134  LEU134     -0.2867
    167  CB       -39.9750  174.3560   84.7320 C.3   134  LEU134      0.0270
    168  CG       -38.4470  174.3230   84.5780 C.3   134  LEU134      0.0019
    169  CD1      -37.7990  174.9010   85.8230 C.3   134  LEU134      0.0001
    170  CD2      -37.9690  172.9010   84.3570 C.3   134  LEU134      0.0001
    171  N        -37.3620  178.3870   81.1470 N.3   144  ALA144     -0.1231
    172  CA       -36.2020  178.2600   82.0240 C.3   144  ALA144      0.1694
    173  C        -34.8980  178.1760   81.2370 C.2   144  ALA144      0.2592
    174  O        -34.8970  178.1200   80.0060 O.2   144  ALA144     -0.2718
    175  CB       -36.3450  177.0470   82.9210 C.3   144  ALA144      0.0304
    176  N        -33.7920  178.1820   81.9750 N.am  145  ASP145     -0.1974
    177  CA       -32.4430  178.1200   81.4170 C.3   145  ASP145      0.1709
    178  C        -32.1660  179.1140   80.2920 C.2   145  ASP145      0.2293
    179  O        -32.3480  178.8140   79.1070 O.2   145  ASP145     -0.2864
    180  CB       -32.1320  176.7110   80.9260 C.3   145  ASP145      0.1436
    181  CG       -30.6560  176.4990   80.7150 C.2   145  ASP145      0.3671
    182  OD1      -30.0570  177.2600   79.9230 O.co2 145  ASP145     -0.2456
    183  OD2      -30.0950  175.5800   81.3510 O.co2 145  ASP145     -0.2456
    184  N        -43.4290  161.9640   88.9430 N.3   298  LEU298     -0.1245
    185  CA       -42.7350  161.9060   90.2220 C.3   298  LEU298      0.1561
    186  C        -43.2950  162.9590   91.1780 C.2   298  LEU298      0.2260
    187  O        -42.5800  163.9390   91.4790 O.2   298  LEU298     -0.2867
    188  CB       -41.2300  162.1160   90.0240 C.3   298  LEU298      0.0270
    189  CG       -40.3920  162.1170   91.3070 C.3   298  LEU298      0.0019
    190  CD1      -40.7960  160.9420   92.2000 C.3   298  LEU298      0.0001
    191  CD2      -38.9130  162.0570   90.9470 C.3   298  LEU298      0.0001
@<TRIPOS>BOND
     1   153   152    2
     2   154   152   am
     3   152   151    1
     4   162   160   am
     5   146   147    1
     6   151   150    1
     7   160   159    1
     8   160   161    2
     9   159   156    1
    10   150   147    1
    11   155   156    1
    12   155   148   am
    13   147   148    1
    14   179   178    2
    15   156   157    1
    16   148   149    2
    17   157   158    2
    18   182   181   ar
    19   174   173    2
    20   178   177    1
    21   137   138    1
    22   181   180    1
    23   181   183   ar
    24   180   177    1
    25   171   172    1
    26   173   176   am
    27   173   172    1
    28   177   176    1
    29   138   139    1
    30   138   141    1
    31   139   140    2
    32    40    38   ar
    33    40    41   ar
    34    38    36   ar
    35   135   134   ar
    36   131   132    2
    37   131   130    1
    38   172   175    1
    39   134   133    1
    40   134   136   ar
    41    31    32    1
    42   163   164    1
    43   133   130    1
    44    42    41    1
    45    35    36    1
    46    35    32    1
    47    41    39   ar
    48    36    37   ar
    49   130   129    1
    50   141   142    1
    51    32    33    1
    52   166   165    2
    53   164   165    1
    54   164   167    1
    55   142   143    1
    56    39    37   ar
    57   129   122   am
    58   170   168    1
    59    33    34    2
    60   168   167    1
    61   168   169    1
    62    63    62    1
    63    64    65    1
    64   123   122    2
    65   127   126    2
    66    69    68    1
    67   122   121    1
    68   143   144    1
    69   125   126    1
    70   125   124    1
    71   126   128   am
    72    68    65    1
    73    68    70    1
    74    62    61    1
    75    67    66    2
    76    65    66    1
    77   144   145    1
    78    61    60    1
    79   124   121    1
    80   121   120    1
    81    28    29    1
    82    28    27    1
    83    29    30    2
    84   109   107    1
    85    79    81   ar
    86    79    77   ar
    87    22    21    2
    88    81    80   ar
    89    49    47    1
    90   120   112   am
    91    60    59    1
    92    27    21   am
    93    21    20    1
    94    77    76   ar
    95   106   107    1
    96   106   103    1
    97   107   108    1
    98    80    78   ar
    99    47    48    1
   100    47    44    1
   101   112   113    2
   102   112   111    1
   103    59    56    1
   104   184   185    1
   105    43    44    1
   106    89    88   ar
   107    76    78   ar
   108    76    75    1
   109    18    17    1
   110    20    23    1
   111    20    19    1
   112    44    45    1
   113    17    16    1
   114   105   104    2
   115   103   104    1
   116   103   102    1
   117   104   110   am
   118   110   111    1
   119    88    90   ar
   120    88    87    1
   121    16    15    1
   122   111   114    1
   123    56    57    1
   124    56    55    1
   125   188   185    1
   126   188   189    1
   127    23    24    1
   128    23    25    1
   129    15    14    1
   130    75    72    1
   131    24    26    1
   132   185   186    1
   133    46    45    2
   134   114   115    1
   135    87    86    1
   136   102    93   am
   137    57    58    2
   138    13    12    2
   139    19    12   am
   140    85    84    2
   141   191   189    1
   142    12    11    1
   143   186   187    2
   144   117   115   ar
   145   117   119   ar
   146   189   190    1
   147   115   116   ar
   148    54    51    1
   149    93    94    2
   150    93    92    1
   151    72    73    1
   152    72    71    1
   153    14    11    1
   154    86    83    1
   155    82    73   am
   156    82    83    1
   157    84    83    1
   158    84    91   am
   159    11    10    1
   160    99    97   ar
   161    99   101   ar
   162    92    91    1
   163    92    95    1
   164    73    74    2
   165    97    96   ar
   166    53    52    2
   167   119   118   ar
   168   101   100   ar
   169   116   118   ar
   170    52    51    1
   171    51    50    1
   172    96    95    1
   173    96    98   ar
   174    10     3   am
   175   100    98   ar
   176     8     7   ar
   177     4     3    2
   178     3     2    1
   179     6     7    1
   180     6     5    1
   181     7     9   ar
   182     5     2    1
   183     2     1    1
