@<TRIPOS>MOLECULE
tmp/1fw0A00.pdb
 146 139 0 0 0
SMALL
GASTEIGER

@<TRIPOS>ATOM
      1  N         21.2540    6.1010   15.1530 N.3    10  GLU10      -0.1245
      2  CA        20.7120    5.3460   14.0340 C.3    10  GLU10       0.1567
      3  C         19.9430    6.3800   13.2360 C.2    10  GLU10       0.2260
      4  O         19.1080    7.0740   13.7890 O.2    10  GLU10      -0.2867
      5  CB        19.7210    4.2960   14.5740 C.3    10  GLU10       0.0388
      6  CG        18.9960    3.4080   13.5430 C.3    10  GLU10       0.1160
      7  CD        19.8270    2.2180   13.0550 C.2    10  GLU10       0.3649
      8  OE1       19.6800    1.8500   11.8660 O.co2  10  GLU10      -0.2457
      9  OE2       20.6000    1.6380   13.8590 O.co2  10  GLU10      -0.2457
     10  N         19.9080   -2.4690   21.7840 N.3    58  TYR58      -0.1241
     11  CA        18.5030   -2.1830   21.9800 C.3    58  TYR58       0.1605
     12  C         17.9420   -2.8740   23.2280 C.2    58  TYR58       0.2264
     13  O         17.5430   -2.1960   24.1860 O.2    58  TYR58      -0.2867
     14  CB        17.7280   -2.5500   20.7090 C.3    58  TYR58       0.0534
     15  CG        17.8560   -1.5210   19.6130 C.ar   58  TYR58      -0.0201
     16  CD1       18.9690   -1.5090   18.7850 C.ar   58  TYR58      -0.0009
     17  CD2       16.8750   -0.5500   19.4020 C.ar   58  TYR58      -0.0009
     18  CE1       19.1120   -0.5660   17.7770 C.ar   58  TYR58       0.0417
     19  CE2       17.0160    0.4050   18.3820 C.ar   58  TYR58       0.0417
     20  CZ        18.1410    0.3670   17.5820 C.ar   58  TYR58       0.1957
     21  OH        18.3080    1.2170   16.5430 O.3    58  TYR58      -0.2866
     22  N         13.9980    3.7300   18.1760 N.3    86  PRO86      -0.2102
     23  CA        13.2140    2.8320   17.3200 C.3    86  PRO86       0.1504
     24  C         13.2830    1.4140   17.9460 C.2    86  PRO86       0.2576
     25  O         13.8760    0.4730   17.4060 O.2    86  PRO86      -0.2718
     26  CB        13.9230    2.9350   15.9750 C.3    86  PRO86       0.0282
     27  CG        15.3070    3.2500   16.3410 C.3    86  PRO86       0.0208
     28  CD        15.1880    4.2280   17.4670 C.3    86  PRO86       0.0893
     29  N         12.6870    1.3030   19.1290 N.am   87  LEU87      -0.1966
     30  CA        12.6730    0.0790   19.9100 C.3    87  LEU87       0.1728
     31  C         11.3570   -0.6410   19.6960 C.2    87  LEU87       0.2616
     32  O         10.3160   -0.2460   20.2400 O.2    87  LEU87      -0.2715
     33  CB        12.8370    0.4490   21.3930 C.3    87  LEU87       0.0311
     34  CG        13.0030   -0.6250   22.4570 C.3    87  LEU87       0.0022
     35  CD1       14.3200   -1.3650   22.2480 C.3    87  LEU87       0.0001
     36  CD2       13.0330    0.0690   23.7970 C.3    87  LEU87       0.0001
     37  N         11.4310   -1.7460   18.9700 N.am   88  THR88      -0.1951
     38  CA        10.2740   -2.5550   18.6460 C.3    88  THR88       0.1897
     39  C          9.6020   -3.1180   19.8910 C.2    88  THR88       0.2313
     40  O         10.2600   -3.6770   20.7830 O.2    88  THR88      -0.2863
     41  CB        10.6760   -3.7200   17.7450 C.3    88  THR88       0.1794
     42  OG1       11.3810   -3.2090   16.6020 O.3    88  THR88      -0.2208
     43  CG2        9.4460   -4.5200   17.3000 C.3    88  THR88       0.0378
     44  N         10.2980   -8.1280   25.7540 N.3    93  ARG93      -0.1245
     45  CA        10.6590   -6.8250   26.3230 C.3    93  ARG93       0.1563
     46  C          9.5160   -6.2970   27.1710 C.2    93  ARG93       0.2260
     47  O          9.7450   -5.7860   28.2610 O.2    93  ARG93      -0.2867
     48  CB        10.9870   -5.8000   25.2420 C.3    93  ARG93       0.0307
     49  CG        12.2920   -6.0620   24.5150 C.3    93  ARG93       0.0489
     50  CD        12.4270   -5.1330   23.3210 C.3    93  ARG93       0.2205
     51  NE        13.6950   -5.3580   22.6360 N.pl3  93  ARG93      -0.0865
     52  CZ        13.9040   -5.0690   21.3630 C.cat  93  ARG93       0.5346
     53  NH1       12.9250   -4.5630   20.6400 N.pl3  93  ARG93       0.1354
     54  NH2       15.1150   -5.1770   20.8440 N.pl3  93  ARG93       0.1354
     55  N         19.4550   -9.1240   10.4910 N.3   135  LEU135     -0.1245
     56  CA        20.4840   -8.6270   11.3990 C.3   135  LEU135      0.1561
     57  C         20.8820   -9.8200   12.2920 C.2   135  LEU135      0.2260
     58  O         20.0810  -10.7210   12.4940 O.2   135  LEU135     -0.2867
     59  CB        19.9310   -7.4480   12.2080 C.3   135  LEU135      0.0270
     60  CG        20.2460   -6.0650   11.6210 C.3   135  LEU135      0.0019
     61  CD1       19.4350   -4.9230   12.2280 C.3   135  LEU135      0.0001
     62  CD2       21.7070   -5.8020   11.8270 C.3   135  LEU135      0.0001
     63  N         21.2070  -10.0140   15.3570 N.3   137  SER137     -0.1202
     64  CA        20.4070   -9.9610   16.5730 C.3   137  SER137      0.2020
     65  C         19.4210   -8.8050   16.4190 C.2   137  SER137      0.2619
     66  O         19.6780   -7.8200   15.7130 O.2   137  SER137     -0.2717
     67  CB        21.2810   -9.7230   17.7940 C.3   137  SER137      0.2103
     68  OG        21.8820   -8.4470   17.7330 O.3   137  SER137     -0.2182
     69  N         18.2770   -8.9350   17.0640 N.am  138  GLY138     -0.1942
     70  CA        17.2800   -7.8940   16.9700 C.3   138  GLY138      0.2014
     71  C         15.9540   -8.5870   16.8530 C.2   138  GLY138      0.2640
     72  O         15.8770   -9.8150   16.8940 O.2   138  GLY138     -0.2714
     73  N         14.9110   -7.7890   16.6920 N.am  139  SER139     -0.1935
     74  CA        13.5710   -8.2980   16.5880 C.3   139  SER139      0.2055
     75  C         13.2430   -9.0280   15.2940 C.2   139  SER139      0.2644
     76  O         12.4110   -9.9420   15.3080 O.2   139  SER139     -0.2714
     77  CB        12.5820   -7.1710   16.8510 C.3   139  SER139      0.2130
     78  OG        12.7680   -6.6830   18.1660 O.3   139  SER139     -0.2179
     79  N         13.8770   -8.6590   14.1820 N.am  140  THR140     -0.1936
     80  CA        13.5940   -9.3580   12.9330 C.3   140  THR140      0.2028
     81  C         14.0910  -10.7940   12.9870 C.2   140  THR140      0.2642
     82  O         13.3870  -11.7180   12.5650 O.2   140  THR140     -0.2714
     83  CB        14.2010   -8.6450   11.7270 C.3   140  THR140      0.1808
     84  OG1       13.6410   -7.3340   11.6550 O.3   140  THR140     -0.2208
     85  CG2       13.8660   -9.3820   10.4240 C.3   140  THR140      0.0379
     86  N         15.2840  -10.9850   13.5460 N.am  141  LYS141     -0.1977
     87  CA        15.8670  -12.3160   13.6440 C.3   141  LYS141      0.1596
     88  C         15.0040  -13.2130   14.5040 C.2   141  LYS141      0.2287
     89  O         14.7130  -14.3450   14.1290 O.2   141  LYS141     -0.2864
     90  CB        17.2850  -12.2740   14.2100 C.3   141  LYS141      0.0298
     91  CG        18.0300  -13.5950   14.0700 C.3   141  LYS141      0.0038
     92  CD        19.3640  -13.5450   14.7850 C.3   141  LYS141      0.0206
     93  CE        20.2020  -14.7960   14.5200 C.3   141  LYS141      0.1093
     94  NZ        21.6620  -14.6090   14.8310 N.3   141  LYS141     -0.1314
     95  N         22.7540   -2.1400   10.1030 N.3   171  THR171     -0.1218
     96  CA        21.8300   -1.7790    9.0420 C.3   171  THR171      0.1862
     97  C         22.6850   -1.3390    7.8500 C.2   171  THR171      0.2287
     98  O         22.4540   -1.7800    6.7240 O.2   171  THR171     -0.2866
     99  CB        20.8880   -0.6370    9.5050 C.3   171  THR171      0.1770
    100  OG1       20.0710   -1.1190   10.5730 O.3   171  THR171     -0.2211
    101  CG2       19.9690   -0.1670    8.3650 C.3   171  THR171      0.0375
    102  N         16.4910   -8.4890    4.8770 N.3   188  LEU188     -0.1231
    103  CA        15.2010   -8.4800    5.5660 C.3   188  LEU188      0.1693
    104  C         15.3180   -7.5320    6.7670 C.2   188  LEU188      0.2592
    105  O         16.1070   -7.7600    7.6800 O.2   188  LEU188     -0.2718
    106  CB        14.7970   -9.9080    5.9540 C.3   188  LEU188      0.0284
    107  CG        14.3450  -10.7240    4.7310 C.3   188  LEU188      0.0019
    108  CD1       14.9230  -12.1090    4.7210 C.3   188  LEU188      0.0001
    109  CD2       12.8400  -10.7590    4.6960 C.3   188  LEU188      0.0001
    110  N         14.5270   -6.4590    6.7430 N.am  189  LEU189     -0.1966
    111  CA        14.6030   -5.4260    7.7550 C.3   189  LEU189      0.1728
    112  C         13.2760   -4.7190    7.9710 C.2   189  LEU189      0.2616
    113  O         12.3290   -4.9020    7.2170 O.2   189  LEU189     -0.2715
    114  CB        15.6420   -4.4070    7.2750 C.3   189  LEU189      0.0311
    115  CG        15.3000   -3.3750    6.1610 C.3   189  LEU189      0.0022
    116  CD1       16.3620   -2.3080    6.1460 C.3   189  LEU189      0.0001
    117  CD2       15.1280   -3.9610    4.7850 C.3   189  LEU189      0.0001
    118  N         13.2260   -3.8450    8.9640 N.am  190  GLU190     -0.1977
    119  CA        11.9930   -3.1180    9.2450 C.3   190  GLU190      0.1602
    120  C         11.6990   -2.0480    8.1910 C.2   190  GLU190      0.2287
    121  O         12.5990   -1.3470    7.7160 O.2   190  GLU190     -0.2864
    122  CB        12.0060   -2.5590   10.6580 C.3   190  GLU190      0.0415
    123  CG        11.9990   -3.6950   11.7000 C.3   190  GLU190      0.1163
    124  CD        12.3440   -3.2250   13.1180 C.2   190  GLU190      0.3649
    125  OE1       12.9710   -2.1360   13.2450 O.co2 190  GLU190     -0.2457
    126  OE2       11.9810   -3.9290   14.0950 O.co2 190  GLU190     -0.2457
    127  N         13.3390    1.5860    8.1170 N.3   193  MET193     -0.1245
    128  CA        14.7270    1.7280    7.6750 C.3   193  MET193      0.1570
    129  C         14.7310    1.4910    6.1780 C.2   193  MET193      0.2261
    130  O         15.5150    2.0940    5.4500 O.2   193  MET193     -0.2867
    131  CB        15.6520    0.6890    8.3390 C.3   193  MET193      0.0387
    132  CG        16.2080    1.0830    9.6940 C.3   193  MET193      0.0595
    133  SD        14.9930    0.8070   11.0100 S.3   193  MET193     -0.1393
    134  CE        15.9890    0.2950   12.3700 C.3   193  MET193      0.0692
    135  N          6.8490    0.8180   17.2830 N.3   217  TYR217     -0.1241
    136  CA         7.9540    1.2590   18.0720 C.3   217  TYR217      0.1605
    137  C          7.3660    1.9850   19.2380 C.2   217  TYR217      0.2264
    138  O          6.4960    2.8280   19.0540 O.2   217  TYR217     -0.2867
    139  CB         8.8160    2.2570   17.3130 C.3   217  TYR217      0.0534
    140  CG         9.7100    1.7040   16.2000 C.ar  217  TYR217     -0.0201
    141  CD1       10.2680    0.4150   16.2440 C.ar  217  TYR217     -0.0009
    142  CD2       10.0120    2.5130   15.1140 C.ar  217  TYR217     -0.0009
    143  CE1       11.1120   -0.0340   15.2510 C.ar  217  TYR217      0.0417
    144  CE2       10.8530    2.0710   14.1100 C.ar  217  TYR217      0.0417
    145  CZ        11.4050    0.8090   14.1860 C.ar  217  TYR217      0.1957
    146  OH        12.2690    0.4010   13.1950 O.3   217  TYR217     -0.2866
@<TRIPOS>BOND
     1   109   107    1
     2   108   107    1
     3   107   106    1
     4   117   115    1
     5   102   103    1
     6   130   129    2
     7   103   106    1
     8   103   104    1
     9   116   115    1
    10   115   114    1
    11   129   128    1
    12    98    97    2
    13   110   104   am
    14   110   111    1
    15   104   105    2
    16   113   112    2
    17   114   111    1
    18   128   127    1
    19   128   131    1
    20   121   120    2
    21   111   112    1
    22    97    96    1
    23   112   118   am
    24   120   119    1
    25   131   132    1
    26   101    99    1
    27   118   119    1
    28    96    99    1
    29    96    95    1
    30   119   122    1
    31    99   100    1
    32   132   133    1
    33    85    83    1
    34    55    56    1
    35   122   123    1
    36   133   134    1
    37    56    59    1
    38    56    57    1
    39    60    62    1
    40    60    59    1
    41    60    61    1
    42    84    83    1
    43   123   124    1
    44    83    80    1
    45     8     7   ar
    46    57    58    2
    47    82    81    2
    48    80    81    1
    49    80    79    1
    50    81    86   am
    51     7     6    1
    52     7     9   ar
    53   124   125   ar
    54   124   126   ar
    55   146   145    1
    56     3     4    2
    57     3     2    1
    58     6     5    1
    59    86    87    1
    60    87    90    1
    61    87    88    1
    62     2     5    1
    63     2     1    1
    64    91    90    1
    65    91    92    1
    66   144   145   ar
    67   144   142   ar
    68    89    88    2
    69    79    75   am
    70   145   143   ar
    71    93    92    1
    72    93    94    1
    73   142   140   ar
    74   143   141   ar
    75    75    76    2
    76    75    74    1
    77    63    64    1
    78    66    65    2
    79    26    27    1
    80    26    23    1
    81   140   141   ar
    82   140   139    1
    83    27    28    1
    84    65    64    1
    85    65    69   am
    86    21    20    1
    87    64    67    1
    88    74    73    1
    89    74    77    1
    90    42    41    1
    91    73    71   am
    92    77    78    1
    93    71    72    2
    94    71    70    1
    95    70    69    1
    96   135   136    1
    97    43    41    1
    98   139   136    1
    99    23    24    1
   100    23    22    1
   101    25    24    2
   102    28    22    1
   103    20    18   ar
   104    20    19   ar
   105    68    67    1
   106    41    38    1
   107    18    16   ar
   108    24    29   am
   109   136   137    1
   110    19    17   ar
   111    38    37    1
   112    38    39    1
   113    16    15   ar
   114    37    31   am
   115   138   137    2
   116    29    30    1
   117    17    15   ar
   118    15    14    1
   119    31    30    1
   120    31    32    2
   121    39    40    2
   122    30    33    1
   123    53    52    1
   124    14    11    1
   125    54    52    1
   126    52    51    2
   127    33    34    1
   128    10    11    1
   129    11    12    1
   130    35    34    1
   131    34    36    1
   132    51    50    1
   133    12    13    2
   134    50    49    1
   135    49    48    1
   136    48    45    1
   137    44    45    1
   138    45    46    1
   139    46    47    2
