@<TRIPOS>MOLECULE
tmp/1fw1A01.pdb
 164 157 0 0 0
SMALL
GASTEIGER

@<TRIPOS>ATOM
      1  N         37.5710   23.2860   13.1330 N.3    10  SER10      -0.1202
      2  CA        36.9760   24.0670   12.0590 C.3    10  SER10       0.2020
      3  C         38.0640   24.5280   11.1080 C.2    10  SER10       0.2619
      4  O         39.1010   25.0610   11.5340 O.2    10  SER10      -0.2717
      5  CB        36.1750   25.2450   12.6110 C.3    10  SER10       0.2103
      6  OG        36.9630   26.0390   13.4510 O.3    10  SER10      -0.2182
      7  N         37.8420   24.2930    9.8180 N.am   11  SER11      -0.1937
      8  CA        38.8670   24.6670    8.8660 C.3    11  SER11       0.2055
      9  C         39.0230   26.1920    8.8750 C.2    11  SER11       0.2643
     10  O         40.1290   26.6720    8.8310 O.2    11  SER11      -0.2714
     11  CB        38.5120   24.1520    7.4420 C.3    11  SER11       0.2130
     12  OG        37.3300   24.7780    7.0210 O.3    11  SER11      -0.2179
     13  N         37.9210   26.9390    8.9650 N.am   12  CYS12      -0.1967
     14  CA        37.9840   28.3980    8.9340 C.3    12  CYS12       0.1712
     15  C         38.8330   28.9960   10.0460 C.2    12  CYS12       0.2296
     16  O         39.5100   30.0160    9.8530 O.2    12  CYS12      -0.2864
     17  CB        36.5700   29.0060    8.9860 C.3    12  CYS12       0.0983
     18  SG        35.3970   28.3230    7.7630 S.3    12  CYS12      -0.0798
     19  N         42.6730   28.5010    9.4690 N.3    15  ARG15      -0.1245
     20  CA        43.2940   29.5140    8.5710 C.3    15  ARG15       0.1563
     21  C         43.8400   30.6980    9.3750 C.2    15  ARG15       0.2260
     22  O         44.9540   31.1570    9.1280 O.2    15  ARG15      -0.2867
     23  CB        42.2740   30.0950    7.5870 C.3    15  ARG15       0.0307
     24  CG        41.4880   29.0460    6.7990 C.3    15  ARG15       0.0489
     25  CD        40.3980   29.7720    5.9340 C.3    15  ARG15       0.2205
     26  NE        39.5200   28.8380    5.2470 N.pl3  15  ARG15      -0.0865
     27  CZ        38.2320   29.0800    5.0190 C.cat  15  ARG15       0.5346
     28  NH1       37.6840   30.2190    5.4180 N.pl3  15  ARG15       0.1354
     29  NH2       37.4860   28.1840    4.4020 N.pl3  15  ARG15       0.1354
     30  N         31.3040   23.6830   18.3160 N.3    34  LEU34      -0.1245
     31  CA        30.2790   23.7230   17.2780 C.3    34  LEU34       0.1561
     32  C         29.3350   22.5270   17.2210 C.2    34  LEU34       0.2260
     33  O         28.3320   22.5790   16.4940 O.2    34  LEU34      -0.2867
     34  CB        30.9320   23.9260   15.9000 C.3    34  LEU34       0.0270
     35  CG        31.8650   25.1420   15.7500 C.3    34  LEU34       0.0019
     36  CD1       32.4650   25.1640   14.3330 C.3    34  LEU34       0.0001
     37  CD2       31.1190   26.4290   16.0190 C.3    34  LEU34       0.0001
     38  N         27.6870   27.9770   19.1460 N.3    41  GLN41      -0.1231
     39  CA        27.5730   29.0460   18.1570 C.3    41  GLN41       0.1698
     40  C         26.1630   29.6140   18.1380 C.2    41  GLN41       0.2592
     41  O         25.9060   30.6210   17.5010 O.2    41  GLN41      -0.2718
     42  CB        27.9830   28.6150   16.7170 C.3    41  GLN41       0.0381
     43  CG        27.0440   27.6330   15.9950 C.3    41  GLN41       0.0905
     44  CD        27.3910   26.1880   16.2930 C.2    41  GLN41       0.2608
     45  OE1       27.6930   25.8400   17.4340 O.2    41  GLN41      -0.2717
     46  NE2       27.3480   25.3400   15.2660 N.am   41  GLN41      -0.0878
     47  N         25.2500   28.9680   18.8510 N.am   42  PHE42      -0.1976
     48  CA        23.8620   29.4190   18.9020 C.3    42  PHE42       0.1639
     49  C         23.4520   29.9680   20.2760 C.2    42  PHE42       0.2290
     50  O         22.3600   30.5190   20.4430 O.2    42  PHE42      -0.2864
     51  CB        22.9430   28.2690   18.4870 C.3    42  PHE42       0.0560
     52  CG        23.1320   27.8380   17.0680 C.ar   42  PHE42      -0.0200
     53  CD1       23.5680   26.5570   16.7750 C.ar   42  PHE42      -0.0042
     54  CD2       22.9130   28.7250   16.0270 C.ar   42  PHE42      -0.0042
     55  CE1       23.7910   26.1550   15.4640 C.ar   42  PHE42      -0.0003
     56  CE2       23.1350   28.3330   14.7000 C.ar   42  PHE42      -0.0003
     57  CZ        23.5760   27.0440   14.4230 C.ar   42  PHE42      -0.0000
     58  N         26.8950   33.5550   13.6940 N.3    53  LYS53      -0.1231
     59  CA        27.0560   32.3210   14.4780 C.3    53  LYS53       0.1693
     60  C         28.0660   31.3530   13.8850 C.2    53  LYS53       0.2592
     61  O         27.8000   30.1650   13.6790 O.2    53  LYS53      -0.2718
     62  CB        25.6950   31.6310   14.6260 C.3    53  LYS53       0.0285
     63  CG        24.6030   32.5880   15.1710 C.3    53  LYS53       0.0035
     64  CD        23.2180   31.9550   15.1150 C.3    53  LYS53       0.0206
     65  CE        22.1070   32.9980   14.9770 C.3    53  LYS53       0.1093
     66  NZ        20.7540   32.3600   14.8150 N.3    53  LYS53      -0.1314
     67  N         29.2580   31.8650   13.6610 N.am   54  GLN54      -0.1966
     68  CA        30.3110   31.0730   13.0750 C.3    54  GLN54       0.1733
     69  C         31.6230   31.5020   13.7100 C.2    54  GLN54       0.2616
     70  O         31.7100   32.5790   14.2720 O.2    54  GLN54      -0.2715
     71  CB        30.3660   31.3690   11.5460 C.3    54  GLN54       0.0408
     72  CG        29.1220   30.9470   10.7640 C.3    54  GLN54       0.0908
     73  CD        29.0950   31.5040    9.2830 C.2    54  GLN54       0.2608
     74  OE1       29.7420   32.5120    8.9620 O.2    54  GLN54      -0.2717
     75  NE2       28.2970   30.8720    8.4270 N.am   54  GLN54      -0.0878
     76  N         32.6350   30.6540   13.6100 N.am   55  VAL55      -0.1964
     77  CA        33.9640   30.9850   14.0640 C.3    55  VAL55       0.1712
     78  C         34.7630   30.9420   12.7510 C.2    55  VAL55       0.2458
     79  O         34.4800   30.1310   11.8780 O.2    55  VAL55      -0.2730
     80  CB        34.5510   29.9680   15.0940 C.3    55  VAL55       0.0289
     81  CG1       33.8960   30.1950   16.4840 C.3    55  VAL55       0.0023
     82  CG2       34.3180   28.5480   14.6470 C.3    55  VAL55       0.0023
     83  N         35.8650   31.6840   12.6760 N.am   56  PRO56      -0.2727
     84  CA        36.4470   32.5460   13.7150 C.3    56  PRO56       0.1402
     85  C         35.9830   33.9840   13.7640 C.2    56  PRO56       0.2269
     86  O         35.4240   34.5150   12.8020 O.2    56  PRO56      -0.2865
     87  CB        37.9240   32.4960   13.3900 C.3    56  PRO56       0.0296
     88  CG        37.8610   32.6000   11.8110 C.3    56  PRO56       0.0237
     89  CD        36.6970   31.6690   11.4470 C.3    56  PRO56       0.0939
     90  N         34.9410   36.8590    9.6580 N.3    67  GLN67      -0.1231
     91  CA        35.3550   36.4750    8.2730 C.3    67  GLN67       0.1698
     92  C         36.8480   36.2590    8.2050 C.2    67  GLN67       0.2593
     93  O         37.6740   37.2180    8.3010 O.2    67  GLN67      -0.2718
     94  CB        34.8780   37.5030    7.2530 C.3    67  GLN67       0.0381
     95  CG        33.3540   37.5340    7.1220 C.3    67  GLN67       0.0905
     96  CD        32.7550   36.2240    6.6030 C.2    67  GLN67       0.2608
     97  OE1       33.4120   35.4380    5.9010 O.2    67  GLN67      -0.2717
     98  NE2       31.4850   35.9880    6.9380 N.am   67  GLN67      -0.0878
     99  N         37.1970   34.9800    8.1140 N.am   68  SER68      -0.1938
    100  CA        38.5870   34.5630    8.1460 C.3    68  SER68       0.2055
    101  C         39.4950   35.3460    7.2110 C.2    68  SER68       0.2642
    102  O         40.5440   35.7590    7.6330 O.2    68  SER68      -0.2714
    103  CB        38.7100   33.0490    7.8870 C.3    68  SER68       0.2130
    104  OG        38.2430   32.6990    6.5950 O.3    68  SER68      -0.2179
    105  N         39.0980   35.5750    5.9570 N.am   69  LEU69      -0.1977
    106  CA        39.9800   36.3140    5.0700 C.3    69  LEU69       0.1596
    107  C         40.0340   37.8030    5.4190 C.2    69  LEU69       0.2287
    108  O         41.0920   38.4160    5.3030 O.2    69  LEU69      -0.2864
    109  CB        39.5640   36.0980    3.5800 C.3    69  LEU69       0.0297
    110  CG        39.4240   34.6260    3.1540 C.3    69  LEU69       0.0022
    111  CD1       39.1470   34.5510    1.5880 C.3    69  LEU69       0.0001
    112  CD2       40.6920   33.8290    3.5180 C.3    69  LEU69       0.0001
    113  N         37.5500   29.2940    0.2060 N.3   103  ALA103     -0.1245
    114  CA        36.7070   29.8510    1.2890 C.3   103  ALA103      0.1562
    115  C         35.2870   30.2500    0.9710 C.2   103  ALA103      0.2260
    116  O         34.4210   30.2760    1.8840 O.2   103  ALA103     -0.2867
    117  CB        37.4130   31.0280    1.9490 C.3   103  ALA103      0.0290
    118  N         34.2600   25.4350    0.8690 N.3   107  GLN107     -0.1231
    119  CA        33.9110   25.2990    2.2680 C.3   107  GLN107      0.1683
    120  C         32.4440   25.5630    2.6160 C.2   107  GLN107      0.2434
    121  O         31.8510   24.7600    3.3150 O.2   107  GLN107     -0.2733
    122  CB        34.8030   26.1690    3.1430 C.3   107  GLN107      0.0380
    123  CG        34.7070   25.8250    4.6410 C.3   107  GLN107      0.0905
    124  CD        33.4760   26.4330    5.3350 C.2   107  GLN107      0.2608
    125  OE1       33.0430   27.5550    5.0300 O.2   107  GLN107     -0.2717
    126  NE2       32.9270   25.6990    6.2860 N.am  107  GLN107     -0.0878
    127  N         31.8460   26.6860    2.1320 N.am  108  PRO108     -0.2729
    128  CA        30.4360   26.9890    2.4450 C.3   108  PRO108      0.1401
    129  C         29.4700   25.8510    2.1240 C.2   108  PRO108      0.2269
    130  O         28.4890   25.6430    2.8480 O.2   108  PRO108     -0.2865
    131  CB        30.1490   28.2350    1.5940 C.3   108  PRO108      0.0296
    132  CG        31.5230   28.9480    1.6230 C.3   108  PRO108      0.0237
    133  CD        32.4740   27.8090    1.3880 C.3   108  PRO108      0.0939
    134  N         29.8380   23.2010    4.8990 N.3   111  ASN111     -0.1225
    135  CA        29.7420   23.7930    6.2330 C.3   111  ASN111      0.1785
    136  C         28.6990   22.9930    7.0420 C.2   111  ASN111      0.2597
    137  O         27.6660   22.5710    6.5070 O.2   111  ASN111     -0.2718
    138  CB        29.3130   25.2590    6.0780 C.3   111  ASN111      0.1169
    139  CG        29.2750   26.0220    7.4120 C.2   111  ASN111      0.2627
    140  OD1       30.2020   25.9670    8.2030 O.2   111  ASN111     -0.2716
    141  ND2       28.2120   26.7830    7.6200 N.am  111  ASN111     -0.0877
    142  N         28.9760   22.7900    8.3270 N.am  112  LEU112     -0.1966
    143  CA        28.0930   22.0350    9.2130 C.3   112  LEU112      0.1728
    144  C         26.5980   22.3770    9.0980 C.2   112  LEU112      0.2616
    145  O         25.7580   21.4890    8.9010 O.2   112  LEU112     -0.2715
    146  CB        28.5490   22.2150   10.6880 C.3   112  LEU112      0.0311
    147  CG        27.6580   21.4240   11.6500 C.3   112  LEU112      0.0022
    148  CD1       27.9130   19.9320   11.4040 C.3   112  LEU112      0.0001
    149  CD2       27.9530   21.8170   13.1600 C.3   112  LEU112      0.0001
    150  N         26.2520   23.6530    9.1960 N.am  113  SER113     -0.1950
    151  CA        24.8470   24.0390    9.1390 C.3   113  SER113      0.1924
    152  C         24.2030   23.7320    7.8000 C.2   113  SER113      0.2314
    153  O         22.9870   23.5810    7.7230 O.2   113  SER113     -0.2863
    154  CB        24.6780   25.5250    9.5000 C.3   113  SER113      0.2116
    155  OG        25.1230   26.3740    8.4500 O.3   113  SER113     -0.2180
    156  N         23.6960   19.8660    7.9340 N.3   116  LYS116     -0.1245
    157  CA        22.5530   19.5170    8.7830 C.3   116  LYS116      0.1561
    158  C         21.2600   19.5980    7.9740 C.2   116  LYS116      0.2260
    159  O         20.3840   18.7530    8.1430 O.2   116  LYS116     -0.2867
    160  CB        22.4520   20.4450   10.0120 C.3   116  LYS116      0.0271
    161  CG        23.3730   20.0420   11.1960 C.3   116  LYS116      0.0035
    162  CD        23.4340   21.1560   12.3070 C.3   116  LYS116      0.0206
    163  CE        24.3230   20.7460   13.5110 C.3   116  LYS116      0.1093
    164  NZ        24.5870   21.8650   14.5030 N.3   116  LYS116     -0.1314
@<TRIPOS>BOND
     1   113   114    1
     2   118   119    1
     3   115   114    1
     4   115   116    2
     5   114   117    1
     6   133   132    1
     7   133   127    1
     8   111   110    1
     9   131   132    1
    10   131   128    1
    11   129   128    1
    12   129   130    2
    13   127   128    1
    14   127   120   am
    15   119   120    1
    16   119   122    1
    17   120   121    2
    18   122   123    1
    19   110   112    1
    20   110   109    1
    21   109   106    1
    22    29    27    1
    23   123   124    1
    24   134   135    1
    25    27    26    2
    26    27    28    1
    27   125   124    2
    28   106   107    1
    29   106   105    1
    30    26    25    1
    31   108   107    2
    32   124   126   am
    33    97    96    2
    34    25    24    1
    35   105   101   am
    36   138   135    1
    37   138   139    1
    38   135   136    1
    39   137   136    2
    40   104   103    1
    41    96    98   am
    42    96    95    1
    43    24    23    1
    44    12    11    1
    45   136   142   am
    46    95    94    1
    47   101   102    2
    48   101   100    1
    49    94    91    1
    50   139   141   am
    51   139   140    2
    52    11     8    1
    53    23    20    1
    54   153   152    2
    55    18    17    1
    56   152   151    1
    57   103   100    1
    58   156   157    1
    59   158   159    2
    60   158   157    1
    61    99   100    1
    62    99    92   am
    63    92    91    1
    64    92    93    2
    65    91    90    1
    66   142   143    1
    67    75    73   am
    68   155   154    1
    69    20    21    1
    70    20    19    1
    71   157   160    1
    72    10     9    2
    73     8     9    1
    74     8     7    1
    75     9    13   am
    76   145   144    2
    77    14    13    1
    78    14    17    1
    79    14    15    1
    80    74    73    2
    81   144   150   am
    82   144   143    1
    83    22    21    2
    84   151   150    1
    85   151   154    1
    86   143   146    1
    87    73    72    1
    88     7     3   am
    89    16    15    2
    90   160   161    1
    91   146   147    1
    92    72    71    1
    93     3     4    2
    94     3     2    1
    95   161   162    1
    96   148   147    1
    97    89    88    1
    98    89    83    1
    99    71    68    1
   100   147   149    1
   101    88    87    1
   102    79    78    2
   103     2     5    1
   104     2     1    1
   105   162   163    1
   106     5     6    1
   107    83    78   am
   108    83    84    1
   109    78    77    1
   110    86    85    2
   111    68    67    1
   112    68    69    1
   113    87    84    1
   114   163   164    1
   115    76    69   am
   116    76    77    1
   117    67    60   am
   118    61    60    2
   119    58    59    1
   120    69    70    2
   121    84    85    1
   122    60    59    1
   123    77    80    1
   124    36    35    1
   125    57    56   ar
   126    57    55   ar
   127    59    62    1
   128    62    63    1
   129    82    80    1
   130    56    54   ar
   131    66    65    1
   132    65    64    1
   133    80    81    1
   134    64    63    1
   135    46    44   am
   136    55    53   ar
   137    35    34    1
   138    35    37    1
   139    34    31    1
   140    43    44    1
   141    43    42    1
   142    54    52   ar
   143    44    45    2
   144    33    32    2
   145    42    39    1
   146    53    52   ar
   147    52    51    1
   148    32    31    1
   149    31    30    1
   150    41    40    2
   151    40    39    1
   152    40    47   am
   153    39    38    1
   154    51    48    1
   155    47    48    1
   156    48    49    1
   157    49    50    2
