@<TRIPOS>MOLECULE
tmp/1fwkD00.pdb
 176 165 0 0 0
SMALL
GASTEIGER

@<TRIPOS>ATOM
      1  N         74.5900   77.8340   54.0900 N.3    46  VAL46      -0.1245
      2  CA        73.2220   77.3400   53.8610 C.3    46  VAL46       0.1561
      3  C         72.8910   77.3780   52.3740 C.2    46  VAL46       0.2260
      4  O         73.0260   78.4240   51.7400 O.2    46  VAL46      -0.2867
      5  CB        72.1670   78.2250   54.5610 C.3    46  VAL46       0.0252
      6  CG1       70.8310   77.5150   54.5740 C.3    46  VAL46       0.0019
      7  CG2       72.6050   78.5610   55.9720 C.3    46  VAL46       0.0019
      8  N         67.8790   82.4990   51.0250 N.3    50  ASN50      -0.1225
      9  CA        66.7620   83.2090   51.6050 C.3    50  ASN50       0.1785
     10  C         66.9630   83.1110   53.1220 C.2    50  ASN50       0.2597
     11  O         66.1970   83.6750   53.9030 O.2    50  ASN50      -0.2718
     12  CB        65.4430   82.5800   51.1660 C.3    50  ASN50       0.1169
     13  CG        64.4590   83.6140   50.6420 C.2    50  ASN50       0.2627
     14  OD1       64.0400   84.5090   51.3800 O.2    50  ASN50      -0.2716
     15  ND2       64.0880   83.5000   49.3630 N.am   50  ASN50      -0.0877
     16  N         68.0220   82.4040   53.5220 N.am   51  ILE51      -0.1966
     17  CA        68.3550   82.2270   54.9330 C.3    51  ILE51       0.1712
     18  C         69.7180   82.8400   55.2750 C.2    51  ILE51       0.2458
     19  O         70.7050   82.6170   54.5800 O.2    51  ILE51      -0.2730
     20  CB        68.4060   80.7280   55.3290 C.3    51  ILE51       0.0289
     21  CG1       67.0650   80.0420   55.0430 C.3    51  ILE51       0.0022
     22  CG2       68.7580   80.6060   56.8010 C.3    51  ILE51       0.0023
     23  CD1       67.1200   78.5410   55.2330 C.3    51  ILE51       0.0001
     24  N         69.7910   83.6020   56.3720 N.am   52  PRO52      -0.2727
     25  CA        71.0430   84.2360   56.7870 C.3    52  PRO52       0.1402
     26  C         72.2250   83.2810   56.8690 C.2    52  PRO52       0.2269
     27  O         72.0820   82.0650   56.7350 O.2    52  PRO52      -0.2865
     28  CB        70.6970   84.8290   58.1460 C.3    52  PRO52       0.0296
     29  CG        69.2510   85.1640   57.9970 C.3    52  PRO52       0.0237
     30  CD        68.7060   83.9310   57.3080 C.3    52  PRO52       0.0939
     31  N         72.3290   85.3630   63.3580 N.3    57  LYS57      -0.1231
     32  CA        71.0040   85.3860   62.7620 C.3    57  LYS57       0.1693
     33  C         70.5320   83.9890   62.3770 C.2    57  LYS57       0.2592
     34  O         69.3570   83.6690   62.5310 O.2    57  LYS57      -0.2718
     35  CB        70.9730   86.3190   61.5410 C.3    57  LYS57       0.0285
     36  CG        71.1220   87.7900   61.9050 C.3    57  LYS57       0.0035
     37  CD        70.7150   88.7220   60.7620 C.3    57  LYS57       0.0206
     38  CE        70.9280   90.1880   61.1570 C.3    57  LYS57       0.1093
     39  NZ        70.2390   91.1600   60.2500 N.3    57  LYS57      -0.1314
     40  N         71.4320   83.1530   61.8740 N.am   58  ASN58      -0.1960
     41  CA        71.0220   81.8030   61.5220 C.3    58  ASN58       0.1819
     42  C         70.8530   81.0550   62.8450 C.2    58  ASN58       0.2621
     43  O         71.7550   81.0820   63.6800 O.2    58  ASN58      -0.2715
     44  CB        72.0660   81.1150   60.6460 C.3    58  ASN58       0.1195
     45  CG        71.6050   79.7540   60.1700 C.2    58  ASN58       0.2630
     46  OD1       71.3250   78.8660   60.9830 O.2    58  ASN58      -0.2716
     47  ND2       71.5120   79.5770   58.8510 N.am   58  ASN58      -0.0877
     48  N         69.7060   80.3980   63.0380 N.am   59  VAL59      -0.1977
     49  CA        69.4490   79.6890   64.2970 C.3    59  VAL59       0.1596
     50  C         70.5320   78.7010   64.6940 C.2    59  VAL59       0.2287
     51  O         70.7620   78.4990   65.8830 O.2    59  VAL59      -0.2864
     52  CB        68.0690   78.9470   64.3000 C.3    59  VAL59       0.0276
     53  CG1       66.9550   79.9220   63.9330 C.3    59  VAL59       0.0022
     54  CG2       68.0830   77.7690   63.3590 C.3    59  VAL59       0.0022
     55  N         74.7080   73.7400   56.1170 N.3    81  ILE81      -0.1245
     56  CA        73.2920   73.3840   56.0920 C.3    81  ILE81       0.1561
     57  C         72.6220   73.1820   54.7350 C.2    81  ILE81       0.2260
     58  O         72.5620   74.1030   53.9080 O.2    81  ILE81      -0.2867
     59  CB        72.4500   74.4420   56.8370 C.3    81  ILE81       0.0252
     60  CG1       72.9200   74.5680   58.2830 C.3    81  ILE81       0.0019
     61  CG2       70.9620   74.0670   56.7880 C.3    81  ILE81       0.0019
     62  CD1       72.2870   75.7470   59.0390 C.3    81  ILE81       0.0001
     63  N         69.0790   72.6250   53.3460 N.3    83  LYS83      -0.1245
     64  CA        67.6730   72.7050   53.7810 C.3    83  LYS83       0.1561
     65  C         66.6550   71.6970   53.2350 C.2    83  LYS83       0.2260
     66  O         66.6000   71.4160   52.0430 O.2    83  LYS83      -0.2867
     67  CB        67.1470   74.1200   53.5450 C.3    83  LYS83       0.0271
     68  CG        67.8490   75.1960   54.3650 C.3    83  LYS83       0.0035
     69  CD        67.6990   74.9560   55.8860 C.3    83  LYS83       0.0206
     70  CE        66.2260   74.7940   56.2860 C.3    83  LYS83       0.1093
     71  NZ        66.0490   74.8790   57.7610 N.3    83  LYS83      -0.1314
     72  N         61.6700   75.2040   52.9540 N.3    86  LYS86      -0.1231
     73  CA        61.7140   76.6310   53.2120 C.3    86  LYS86       0.1693
     74  C         61.0880   77.0000   54.5580 C.2    86  LYS86       0.2592
     75  O         60.2300   76.2740   55.0680 O.2    86  LYS86      -0.2718
     76  CB        60.9380   77.3480   52.0960 C.3    86  LYS86       0.0285
     77  CG        59.4300   77.0450   52.1240 C.3    86  LYS86       0.0035
     78  CD        58.6700   77.5450   50.8670 C.3    86  LYS86       0.0206
     79  CE        57.1460   77.4250   51.0560 C.3    86  LYS86       0.1093
     80  NZ        56.3760   77.5920   49.7890 N.3    86  LYS86      -0.1314
     81  N         61.5060   78.1330   55.1220 N.am   87  ALA87      -0.1966
     82  CA        60.9280   78.6190   56.3730 C.3    87  ALA87       0.1728
     83  C         59.5500   79.1780   55.9910 C.2    87  ALA87       0.2617
     84  O         59.2850   79.4130   54.8040 O.2    87  ALA87      -0.2715
     85  CB        61.7870   79.7300   56.9570 C.3    87  ALA87       0.0334
     86  N         58.6760   79.3840   56.9710 N.am   88  GLY88      -0.1940
     87  CA        57.3480   79.9080   56.6670 C.3    88  GLY88       0.2014
     88  C         56.3960   78.9400   55.9780 C.2    88  GLY88       0.2640
     89  O         55.4220   79.3690   55.3540 O.2    88  GLY88      -0.2714
     90  N         56.6740   77.6360   56.0720 N.am   89  SER89      -0.1935
     91  CA        55.8080   76.6170   55.4600 C.3    89  SER89       0.2055
     92  C         54.9630   75.8380   56.5110 C.2    89  SER89       0.2644
     93  O         54.0420   75.0720   56.1530 O.2    89  SER89      -0.2714
     94  CB        56.6640   75.6470   54.6290 C.3    89  SER89       0.2130
     95  OG        57.7470   75.0750   55.3870 O.3    89  SER89      -0.2179
     96  N         55.2630   76.0460   57.7970 N.am   90  GLY90      -0.1939
     97  CA        54.5290   75.3750   58.8630 C.3    90  GLY90       0.2014
     98  C         55.0720   73.9800   59.1480 C.2    90  GLY90       0.2639
     99  O         54.4230   73.1780   59.8260 O.2    90  GLY90      -0.2714
    100  N         56.2650   73.6900   58.6320 N.am   91  LEU91      -0.1963
    101  CA        56.8960   72.3670   58.8040 C.3    91  LEU91       0.1728
    102  C         58.1400   72.3510   59.7250 C.2    91  LEU91       0.2617
    103  O         58.9340   71.4280   59.6710 O.2    91  LEU91      -0.2715
    104  CB        57.2700   71.8000   57.4210 C.3    91  LEU91       0.0311
    105  CG        56.0240   71.4320   56.5680 C.3    91  LEU91       0.0022
    106  CD1       56.4370   71.1280   55.1330 C.3    91  LEU91       0.0001
    107  CD2       55.3030   70.2190   57.1700 C.3    91  LEU91       0.0001
    108  N         58.2940   73.3570   60.5810 N.am   92  GLY92      -0.1940
    109  CA        59.4420   73.4010   61.4820 C.3    92  GLY92       0.2014
    110  C         60.8210   73.4530   60.8200 C.2    92  GLY92       0.2640
    111  O         61.7590   72.7620   61.2510 O.2    92  GLY92      -0.2714
    112  N         60.9450   74.2760   59.7770 N.am   93  SER93      -0.1935
    113  CA        62.1980   74.4400   59.0510 C.3    93  SER93       0.2055
    114  C         63.3220   74.9290   59.9670 C.2    93  SER93       0.2644
    115  O         64.3410   74.2620   60.0730 O.2    93  SER93      -0.2714
    116  CB        62.0240   75.4390   57.8990 C.3    93  SER93       0.2130
    117  OG        63.0990   75.3330   56.9780 O.3    93  SER93      -0.2179
    118  N         63.1370   76.0850   60.6040 N.am   94  SER94      -0.1935
    119  CA        64.1540   76.6420   61.4890 C.3    94  SER94       0.2055
    120  C         64.3440   75.7250   62.6790 C.2    94  SER94       0.2642
    121  O         65.4730   75.5040   63.1240 O.2    94  SER94      -0.2714
    122  CB        63.8000   78.0710   61.9630 C.3    94  SER94       0.2130
    123  OG        62.5520   78.1400   62.6200 O.3    94  SER94      -0.2179
    124  N         63.2450   75.1740   63.1780 N.am   95  ALA95      -0.1977
    125  CA        63.3180   74.2310   64.2940 C.3    95  ALA95       0.1597
    126  C         64.2490   73.0470   63.9690 C.2    95  ALA95       0.2287
    127  O         64.9630   72.5590   64.8370 O.2    95  ALA95      -0.2864
    128  CB        61.9120   73.7070   64.6210 C.3    95  ALA95       0.0319
    129  N         66.8440   73.0270   61.9850 N.3    97  SER97      -0.1217
    130  CA        68.2300   73.4940   62.0520 C.3    97  SER97       0.1889
    131  C         68.6380   73.6720   63.5090 C.2    97  SER97       0.2288
    132  O         69.7420   73.2930   63.8720 O.2    97  SER97      -0.2866
    133  CB        68.4260   74.8400   61.3250 C.3    97  SER97       0.2089
    134  OG        68.5380   74.6600   59.9220 O.3    97  SER97      -0.2183
    135  N         64.5800   79.2790   68.5870 N.3   126  GLU126     -0.1245
    136  CA        63.1900   79.5470   68.2290 C.3   126  GLU126      0.1567
    137  C         62.7710   80.9060   68.7470 C.2   126  GLU126      0.2260
    138  O         61.7870   81.4790   68.2910 O.2   126  GLU126     -0.2867
    139  CB        62.2870   78.4680   68.8220 C.3   126  GLU126      0.0388
    140  CG        62.6620   77.0820   68.3390 C.3   126  GLU126      0.1160
    141  CD        62.4110   76.9180   66.8580 C.2   126  GLU126      0.3649
    142  OE1       61.2540   76.5890   66.5120 O.co2 126  GLU126     -0.2457
    143  OE2       63.3590   77.1330   66.0530 O.co2 126  GLU126     -0.2457
    144  N         63.7780   84.3130   66.0820 N.3   129  SER129     -0.1202
    145  CA        62.8320   84.4050   64.9900 C.3   129  SER129      0.2020
    146  C         61.3680   84.2460   65.3620 C.2   129  SER129      0.2619
    147  O         60.5090   84.2460   64.4810 O.2   129  SER129     -0.2717
    148  CB        63.2000   83.3600   63.9380 C.3   129  SER129      0.2103
    149  OG        63.4020   82.0840   64.5410 O.3   129  SER129     -0.2182
    150  N         61.0650   84.1130   66.6470 N.am  130  SER130     -0.1951
    151  CA        59.6710   83.9390   67.0370 C.3   130  SER130      0.1924
    152  C         59.2950   84.7160   68.2850 C.2   130  SER130      0.2314
    153  O         58.1290   84.7510   68.6780 O.2   130  SER130     -0.2863
    154  CB        59.3590   82.4470   67.2560 C.3   130  SER130      0.2116
    155  OG        59.6150   81.6670   66.1010 O.3   130  SER130     -0.2180
    156  N         58.0590   72.3750   68.3860 N.3   137  ASN137     -0.1240
    157  CA        58.6050   71.8510   67.1350 C.3   137  ASN137      0.1653
    158  C         59.9710   71.1950   67.4440 C.2   137  ASN137      0.2266
    159  O         60.2540   70.1170   66.9200 O.2   137  ASN137     -0.2867
    160  CB        58.8560   72.9430   66.0840 C.3   137  ASN137      0.1155
    161  CG        57.6250   73.2660   65.2610 C.2   137  ASN137      0.2627
    162  OD1       57.2750   72.5470   64.3360 O.2   137  ASN137     -0.2716
    163  ND2       56.9660   74.3380   65.6050 N.am  137  ASN137     -0.0877
    164  N         55.1270   83.6020   60.6160 N.3   179  THR179     -0.1218
    165  CA        54.8410   83.0140   61.9140 C.3   179  THR179      0.1862
    166  C         54.3610   83.9720   63.0180 C.2   179  THR179      0.2287
    167  O         53.4760   83.5960   63.7970 O.2   179  THR179     -0.2866
    168  CB        56.0630   82.2040   62.4280 C.3   179  THR179      0.1770
    169  OG1       56.1460   80.9410   61.7200 O.3   179  THR179     -0.2211
    170  CG2       55.8950   81.9290   63.9130 C.3   179  THR179      0.0375
    171  N         51.7090   76.7520   61.7580 N.3   257  SER257     -0.1217
    172  CA        50.9240   77.9190   61.4320 C.3   257  SER257      0.1889
    173  C         50.5330   77.9450   59.9580 C.2   257  SER257      0.2288
    174  O         49.9460   78.9270   59.4800 O.2   257  SER257     -0.2866
    175  CB        51.6830   79.1920   61.8400 C.3   257  SER257      0.2089
    176  OG        52.9160   79.2340   61.1910 O.3   257  SER257     -0.2183
@<TRIPOS>BOND
     1    15    13   am
     2    80    79    1
     3    13    12    1
     4    13    14    2
     5    78    79    1
     6    78    77    1
     7     8     9    1
     8    12     9    1
     9     9    10    1
    10     4     3    2
    11    66    65    2
    12    76    77    1
    13    76    73    1
    14     3     2    1
    15    72    73    1
    16    10    16   am
    17    10    11    2
    18    73    74    1
    19    65    64    1
    20    63    64    1
    21    16    17    1
    22    67    64    1
    23    67    68    1
    24     2     1    1
    25     2     5    1
    26    58    57    2
    27    68    69    1
    28    74    75    2
    29    74    81   am
    30     5     6    1
    31     5     7    1
    32    19    18    2
    33    94    95    1
    34    94    91    1
    35    57    56    1
    36    84    83    2
    37    17    18    1
    38    17    20    1
    39    21    23    1
    40    21    20    1
    41    81    82    1
    42   106   105    1
    43    18    24   am
    44    20    22    1
    45    89    88    2
    46    91    90    1
    47    91    92    1
    48    69    70    1
    49    88    90   am
    50    88    87    1
    51    83    82    1
    52    83    86   am
    53    56    55    1
    54    56    59    1
    55    93    92    2
    56    70    71    1
    57    24    25    1
    58    24    30    1
    59    82    85    1
    60    92    96   am
    61   105   107    1
    62   105   104    1
    63    87    86    1
    64    27    26    2
    65    25    26    1
    66    25    28    1
    67    61    59    1
    68    59    60    1
    69   117   116    1
    70    30    29    1
    71   104   101    1
    72    96    97    1
    73   116   113    1
    74    29    28    1
    75    60    62    1
    76   100   101    1
    77   100    98   am
    78   101   102    1
    79    47    45   am
    80    97    98    1
    81   113   112    1
    82   113   114    1
    83    98    99    2
    84   174   173    2
    85   103   102    2
    86   102   108   am
    87   112   110   am
    88   134   133    1
    89   173   172    1
    90   114   115    2
    91   114   118   am
    92    45    44    1
    93    45    46    2
    94    39    38    1
    95   108   109    1
    96   118   119    1
    97   164   165    1
    98    44    41    1
    99    37    38    1
   100    37    36    1
   101   110   111    2
   102   110   109    1
   103   176   175    1
   104   133   130    1
   105   172   171    1
   106   172   175    1
   107   119   122    1
   108   119   120    1
   109    41    40    1
   110    41    42    1
   111    35    36    1
   112    35    32    1
   113   169   168    1
   114    40    33   am
   115   165   168    1
   116   165   166    1
   117   122   123    1
   118   129   130    1
   119   130   131    1
   120    33    34    2
   121    33    32    1
   122   168   170    1
   123   120   121    2
   124   120   124   am
   125    32    31    1
   126    42    48   am
   127    42    43    2
   128   166   167    2
   129    48    49    1
   130   124   125    1
   131    54    52    1
   132   131   132    2
   133    53    52    1
   134   148   149    1
   135   148   145    1
   136   126   125    1
   137   126   127    2
   138   125   128    1
   139    49    52    1
   140    49    50    1
   141   162   161    2
   142   147   146    2
   143    50    51    2
   144   145   146    1
   145   145   144    1
   146   161   163   am
   147   161   160    1
   148   146   150   am
   149   143   141   ar
   150   160   157    1
   151   155   154    1
   152   142   141   ar
   153   150   151    1
   154   141   140    1
   155   159   158    2
   156   151   154    1
   157   151   152    1
   158   157   158    1
   159   157   156    1
   160   136   135    1
   161   136   137    1
   162   136   139    1
   163   152   153    2
   164   138   137    2
   165   140   139    1
