@<TRIPOS>MOLECULE
tmp/1fwtA01.pdb
 132 124 0 0 0
SMALL
GASTEIGER

@<TRIPOS>ATOM
      1  N         40.5080   51.9640   24.7920 N.3    45  LYS45      -0.1245
      2  CA        40.0760   51.9740   23.3990 C.3    45  LYS45       0.1561
      3  C         41.1410   51.0840   22.7630 C.2    45  LYS45       0.2260
      4  O         42.1680   51.5630   22.2750 O.2    45  LYS45      -0.2867
      5  CB        40.1340   53.3910   22.8250 C.3    45  LYS45       0.0271
      6  CG        39.3790   54.4340   23.6610 C.3    45  LYS45       0.0035
      7  CD        37.9530   53.9870   24.0130 C.3    45  LYS45       0.0206
      8  CE        37.1230   53.6940   22.7670 C.3    45  LYS45       0.1093
      9  NZ        35.7020   53.3850   23.1010 N.3    45  LYS45      -0.1314
     10  N         41.0140   49.2750   20.0630 N.3    47  ASN47      -0.1225
     11  CA        40.9500   49.0880   18.6190 C.3    47  ASN47       0.1785
     12  C         41.0540   50.3780   17.8130 C.2    47  ASN47       0.2597
     13  O         40.4740   50.4670   16.7240 O.2    47  ASN47      -0.2718
     14  CB        39.6350   48.4020   18.2450 C.3    47  ASN47       0.1169
     15  CG        38.4330   49.3010   18.4830 C.2    47  ASN47       0.2627
     16  OD1       37.3540   49.0740   17.9400 O.2    47  ASN47      -0.2716
     17  ND2       38.6200   50.3310   19.3070 N.am   47  ASN47      -0.0877
     18  N         41.7630   51.3770   18.3330 N.am   48  ARG48      -0.1966
     19  CA        41.9110   52.6330   17.5980 C.3    48  ARG48       0.1729
     20  C         42.5350   52.3270   16.2390 C.2    48  ARG48       0.2617
     21  O         43.2300   51.3230   16.0780 O.2    48  ARG48      -0.2715
     22  CB        42.8200   53.6230   18.3470 C.3    48  ARG48       0.0348
     23  CG        42.3170   54.0990   19.7060 C.3    48  ARG48       0.0492
     24  CD        40.9140   54.6930   19.6390 C.3    48  ARG48       0.2205
     25  NE        40.8010   55.8670   18.7700 N.pl3  48  ARG48      -0.0865
     26  CZ        41.0040   57.1260   19.1540 C.cat  48  ARG48       0.5346
     27  NH1       41.3420   57.4100   20.4080 N.pl3  48  ARG48       0.1354
     28  NH2       40.8450   58.1090   18.2790 N.pl3  48  ARG48       0.1354
     29  N         42.2920   53.1900   15.2600 N.am   49  SER49      -0.1936
     30  CA        42.8670   52.9880   13.9380 C.3    49  SER49       0.2055
     31  C         44.3720   53.2390   13.9800 C.2    49  SER49       0.2643
     32  O         45.1520   52.4960   13.3840 O.2    49  SER49      -0.2714
     33  CB        42.2290   53.9420   12.9210 C.3    49  SER49       0.2130
     34  OG        40.8470   53.6730   12.7680 O.3    49  SER49      -0.2179
     35  N         44.7720   54.2860   14.6970 N.am   50  SER50      -0.1949
     36  CA        46.1830   54.6540   14.7910 C.3    50  SER50       0.1924
     37  C         46.8520   54.3260   16.1170 C.2    50  SER50       0.2314
     38  O         46.2560   54.4600   17.1820 O.2    50  SER50      -0.2863
     39  CB        46.3550   56.1500   14.5210 C.3    50  SER50       0.2116
     40  OG        47.6980   56.5450   14.7470 O.3    50  SER50      -0.2180
     41  N         46.8260   57.2440   18.6520 N.3    53  SER53      -0.1217
     42  CA        45.6140   57.7470   19.2850 C.3    53  SER53       0.1889
     43  C         45.4930   57.3260   20.7430 C.2    53  SER53       0.2288
     44  O         46.0490   56.3120   21.1640 O.2    53  SER53      -0.2866
     45  CB        44.3810   57.2790   18.5130 C.3    53  SER53       0.2089
     46  OG        44.3940   57.7970   17.1990 O.3    53  SER53      -0.2183
     47  N         33.8580   44.4430   16.9080 N.3   102  PHE102     -0.1241
     48  CA        34.7920   43.5940   16.1790 C.3   102  PHE102      0.1605
     49  C         34.9460   42.2270   16.8440 C.2   102  PHE102      0.2264
     50  O         35.2920   41.2470   16.1920 O.2   102  PHE102     -0.2867
     51  CB        36.1750   44.2550   16.0770 C.3   102  PHE102      0.0534
     52  CG        36.2030   45.5150   15.2480 C.ar  102  PHE102     -0.0203
     53  CD1       35.3460   45.6750   14.1600 C.ar  102  PHE102     -0.0042
     54  CD2       37.1280   46.5240   15.5270 C.ar  102  PHE102     -0.0042
     55  CE1       35.4100   46.8250   13.3560 C.ar  102  PHE102     -0.0003
     56  CE2       37.2000   47.6730   14.7320 C.ar  102  PHE102     -0.0003
     57  CZ        36.3380   47.8200   13.6440 C.ar  102  PHE102     -0.0000
     58  N         29.9380   45.0030   12.4910 N.3   126  GLN126     -0.1245
     59  CA        29.6240   45.6890   11.2390 C.3   126  GLN126      0.1566
     60  C         29.5440   44.7180   10.0600 C.2   126  GLN126      0.2260
     61  O         29.0620   45.0680    8.9840 O.2   126  GLN126     -0.2867
     62  CB        30.6880   46.7620   10.9540 C.3   126  GLN126      0.0367
     63  CG        30.7990   47.8290   12.0410 C.3   126  GLN126      0.0905
     64  CD        31.7690   47.4620   13.1530 C.2   126  GLN126      0.2608
     65  OE1       31.9510   46.2890   13.4790 O.2   126  GLN126     -0.2717
     66  NE2       32.3900   48.4760   13.7490 N.am  126  GLN126     -0.0878
     67  N         24.6710   49.0850   15.8210 N.3   153  ARG153     -0.1245
     68  CA        25.5870   50.2120   15.6840 C.3   153  ARG153      0.1563
     69  C         26.0340   50.4220   14.2420 C.2   153  ARG153      0.2260
     70  O         27.1080   50.9660   13.9840 O.2   153  ARG153     -0.2867
     71  CB        26.8010   50.0450   16.6140 C.3   153  ARG153      0.0307
     72  CG        27.5220   48.7090   16.5010 C.3   153  ARG153      0.0489
     73  CD        28.6950   48.7800   15.5370 C.3   153  ARG153      0.2205
     74  NE        29.8370   49.5030   16.1000 N.pl3 153  ARG153     -0.0865
     75  CZ        30.3590   50.6060   15.5710 C.cat 153  ARG153      0.5346
     76  NH1       29.8380   51.1220   14.4650 N.pl3 153  ARG153      0.1354
     77  NH2       31.4120   51.1850   16.1340 N.pl3 153  ARG153      0.1354
     78  N         27.6830   55.7010   17.4840 N.3   184  HIS184     -0.1241
     79  CA        28.6060   54.9790   16.6100 C.3   184  HIS184      0.1621
     80  C         28.0010   54.7120   15.2320 C.2   184  HIS184      0.2264
     81  O         28.7270   54.5800   14.2460 O.2   184  HIS184     -0.2867
     82  CB        29.0440   53.6560   17.2450 C.3   184  HIS184      0.0745
     83  CG        29.9250   53.8280   18.4420 C.ar  184  HIS184      0.0817
     84  ND1       29.4890   53.6000   19.7290 N.ar  184  HIS184     -0.2268
     85  CD2       31.2140   54.2340   18.5470 C.ar  184  HIS184      0.1154
     86  CE1       30.4700   53.8580   20.5760 C.ar  184  HIS184      0.1986
     87  NE2       31.5270   54.2450   19.8850 N.ar  184  HIS184     -0.2212
     88  N         29.1160   57.2780   12.6900 N.3   187  GLN187     -0.1245
     89  CA        30.5470   57.4720   12.5150 C.3   187  GLN187      0.1566
     90  C         31.0210   56.9740   11.1490 C.2   187  GLN187      0.2260
     91  O         30.4270   56.0670   10.5620 O.2   187  GLN187     -0.2867
     92  CB        31.3060   56.7570   13.6370 C.3   187  GLN187      0.0367
     93  CG        31.8290   55.3850   13.2620 C.3   187  GLN187      0.0905
     94  CD        32.1790   54.5410   14.4720 C.2   187  GLN187      0.2608
     95  OE1       32.7340   55.0370   15.4570 O.2   187  GLN187     -0.2717
     96  NE2       31.8640   53.2540   14.3990 N.am  187  GLN187     -0.0878
     97  N         33.9690   55.1480    9.6800 N.3   189  PRO189     -0.2116
     98  CA        35.1690   54.3470    9.9670 C.3   189  PRO189      0.1372
     99  C         36.3990   54.7550    9.1560 C.2   189  PRO189      0.2244
    100  O         36.3740   54.7380    7.9240 O.2   189  PRO189     -0.2868
    101  CB        34.7210   52.9200    9.6490 C.3   189  PRO189      0.0268
    102  CG        33.2450   52.9580    9.9100 C.3   189  PRO189      0.0207
    103  CD        32.8390   54.2800    9.3070 C.3   189  PRO189      0.0892
    104  N         42.2210   58.5080   11.9920 N.3   195  LYS195     -0.1231
    105  CA        41.0840   58.3930   12.8990 C.3   195  LYS195      0.1693
    106  C         39.7900   58.2540   12.1060 C.2   195  LYS195      0.2592
    107  O         39.7760   58.4210   10.8850 O.2   195  LYS195     -0.2718
    108  CB        40.9830   59.6260   13.8030 C.3   195  LYS195      0.0285
    109  CG        42.1050   59.7640   14.8090 C.3   195  LYS195      0.0035
    110  CD        41.8080   60.8700   15.8080 C.3   195  LYS195      0.0206
    111  CE        42.8780   60.9390   16.8900 C.3   195  LYS195      0.1093
    112  NZ        42.5150   61.9100   17.9580 N.3   195  LYS195     -0.1314
    113  N         38.7010   57.9540   12.8060 N.am  196  SER196     -0.1952
    114  CA        37.4040   57.8060   12.1570 C.3   196  SER196      0.1924
    115  C         36.6390   59.1270   12.1770 C.2   196  SER196      0.2314
    116  O         36.8730   59.9840   13.0340 O.2   196  SER196     -0.2863
    117  CB        36.5780   56.7180   12.8540 C.3   196  SER196      0.2116
    118  OG        37.1710   55.4380   12.6960 O.3   196  SER196     -0.2180
    119  N         38.5770   60.7350   21.9600 N.3   231  SER231     -0.1202
    120  CA        38.0760   59.6500   21.1260 C.3   231  SER231      0.2020
    121  C         36.6590   60.0030   20.6810 C.2   231  SER231      0.2618
    122  O         35.8810   60.5570   21.4570 O.2   231  SER231     -0.2717
    123  CB        38.0720   58.3230   21.9020 C.3   231  SER231      0.2103
    124  OG        37.2080   58.3750   23.0260 O.3   231  SER231     -0.2182
    125  N         36.3360   59.6850   19.4310 N.am  232  ASP232     -0.1973
    126  CA        35.0200   59.9770   18.8690 C.3   232  ASP232      0.1709
    127  C         34.6270   61.4320   19.0680 C.2   232  ASP232      0.2293
    128  O         33.4840   61.7370   19.4130 O.2   232  ASP232     -0.2864
    129  CB        33.9490   59.0720   19.4840 C.3   232  ASP232      0.1436
    130  CG        33.9720   57.6690   18.9090 C.2   232  ASP232      0.3671
    131  OD1       34.3990   57.5130   17.7470 O.co2 232  ASP232     -0.2456
    132  OD2       33.5500   56.7260   19.6080 O.co2 232  ASP232     -0.2456
@<TRIPOS>BOND
     1   100    99    2
     2    61    60    2
     3    99    98    1
     4   103    97    1
     5   103   102    1
     6   101   102    1
     7   101    98    1
     8    97    98    1
     9    60    59    1
    10    91    90    2
    11   107   106    2
    12    62    59    1
    13    62    63    1
    14    90    89    1
    15    59    58    1
    16   104   105    1
    17    63    64    1
    18   106   113   am
    19   106   105    1
    20   114   115    1
    21   114   113    1
    22   114   117    1
    23   115   116    2
    24    89    88    1
    25    89    92    1
    26   118   117    1
    27    34    33    1
    28   105   108    1
    29    33    30    1
    30    64    65    2
    31    64    66   am
    32    93    92    1
    33    93    94    1
    34    55    57   ar
    35    55    53   ar
    36    32    31    2
    37    57    56   ar
    38   108   109    1
    39    30    31    1
    40    30    29    1
    41    31    35   am
    42    70    69    2
    43    53    52   ar
    44    69    68    1
    45    81    80    2
    46    96    94   am
    47    76    75    1
    48    94    95    2
    49    39    40    1
    50    39    36    1
    51    35    36    1
    52    56    54   ar
    53    36    37    1
    54   109   110    1
    55    80    79    1
    56    52    54   ar
    57    52    51    1
    58    29    20   am
    59    73    74    1
    60    73    72    1
    61    75    74    2
    62    75    77    1
    63    68    67    1
    64    68    71    1
    65   110   111    1
    66    51    48    1
    67    21    20    2
    68    37    38    2
    69    48    49    1
    70    48    47    1
    71    50    49    2
    72    20    19    1
    73    72    71    1
    74    79    82    1
    75    79    78    1
    76    13    12    2
    77   111   112    1
    78    46    45    1
    79    82    83    1
    80    19    18    1
    81    19    22    1
    82   131   130   ar
    83    12    18   am
    84    12    11    1
    85    16    15    2
    86    14    15    1
    87    14    11    1
    88    28    26    1
    89    22    23    1
    90    83    85   ar
    91    83    84   ar
    92    15    17   am
    93    45    42    1
    94    85    87   ar
    95    11    10    1
    96    41    42    1
    97    25    26    2
    98    25    24    1
    99   126   127    1
   100   126   125    1
   101   126   129    1
   102   130   129    1
   103   130   132   ar
   104   127   128    2
   105    26    27    1
   106    42    43    1
   107   125   121   am
   108    24    23    1
   109    84    86   ar
   110    87    86   ar
   111   121   120    1
   112   121   122    2
   113    43    44    2
   114   120   123    1
   115   120   119    1
   116   123   124    1
   117     4     3    2
   118     3     2    1
   119     8     9    1
   120     8     7    1
   121     5     2    1
   122     5     6    1
   123     2     1    1
   124     6     7    1
