@<TRIPOS>MOLECULE
tmp/1fwuA00.pdb
 96 93 0 0 0
SMALL
GASTEIGER

@<TRIPOS>ATOM
      1  N          6.8210    6.8730   19.9030 N.3    11  ASP11      -0.1239
      2  CA         6.0220    5.7860   19.3450 C.3    11  ASP11       0.1674
      3  C          6.8400    4.6060   18.8170 C.2    11  ASP11       0.2266
      4  O          6.5080    3.4500   19.0900 O.2    11  ASP11      -0.2867
      5  CB         5.0890    6.3070   18.2450 C.3    11  ASP11       0.1410
      6  CG         3.9570    5.3400   17.9480 C.2    11  ASP11       0.3668
      7  OD1        3.2740    4.9240   18.9100 O.co2  11  ASP11      -0.2456
      8  OD2        3.7520    4.9910   16.7690 O.co2  11  ASP11      -0.2456
      9  N          9.5560   13.5990    9.7830 N.3    98  ASN98      -0.1240
     10  CA         8.7240   12.4090    9.9420 C.3    98  ASN98       0.1653
     11  C          9.4020   11.0680    9.6730 C.2    98  ASN98       0.2266
     12  O         10.3260   10.9750    8.8620 O.2    98  ASN98      -0.2867
     13  CB         7.5010   12.5960    9.0260 C.3    98  ASN98       0.1155
     14  CG         6.4990   11.4670    9.1170 C.2    98  ASN98       0.2627
     15  OD1        6.6250   10.4540    8.4350 O.2    98  ASN98      -0.2716
     16  ND2        5.4890   11.6420    9.9590 N.am   98  ASN98      -0.0877
     17  N          8.3670    6.5630    9.6280 N.3   100  GLY100     -0.1210
     18  CA         7.4320    5.4730    9.8580 C.3   100  GLY100      0.1956
     19  C          6.5000    5.0860    8.7220 C.2   100  GLY100      0.2612
     20  O          5.9980    3.9620    8.6910 O.2   100  GLY100     -0.2717
     21  N          6.2640    5.9990    7.7890 N.am  101  ASN101     -0.1960
     22  CA         5.3650    5.7180    6.6720 C.3   101  ASN101      0.1819
     23  C          6.0290    4.9740    5.5060 C.2   101  ASN101      0.2621
     24  O          7.2130    5.1600    5.2280 O.2   101  ASN101     -0.2715
     25  CB         4.7520    7.0320    6.1660 C.3   101  ASN101      0.1195
     26  CG         3.8220    7.6800    7.1860 C.2   101  ASN101      0.2630
     27  OD1        2.7600    7.1480    7.4950 O.2   101  ASN101     -0.2716
     28  ND2        4.2230    8.8340    7.7140 N.am  101  ASN101     -0.0877
     29  N          5.2510    4.1190    4.8420 N.am  102  ARG102     -0.1963
     30  CA         5.7020    3.3550    3.6710 C.3   102  ARG102      0.1729
     31  C          7.0090    2.5670    3.7690 C.2   102  ARG102      0.2616
     32  O          7.7090    2.4180    2.7680 O.2   102  ARG102     -0.2715
     33  CB         5.8170    4.2840    2.4570 C.3   102  ARG102      0.0348
     34  CG         4.5720    5.0790    2.1290 C.3   102  ARG102      0.0492
     35  CD         3.3670    4.1830    1.8950 C.3   102  ARG102      0.2205
     36  NE         2.1990    4.9710    1.5200 N.pl3 102  ARG102     -0.0865
     37  CZ         1.9990    5.4920    0.3130 C.cat 102  ARG102      0.5346
     38  NH1        2.8850    5.3060   -0.6550 N.pl3 102  ARG102      0.1354
     39  NH2        0.9150    6.2140    0.0810 N.pl3 102  ARG102      0.1354
     40  N          7.3450    2.0540    4.9450 N.am  103  GLN103     -0.1977
     41  CA         8.5870    1.2970    5.0900 C.3   103  GLN103      0.1601
     42  C          9.7890    2.0960    4.5750 C.2   103  GLN103      0.2287
     43  O         10.8070    1.5230    4.1700 O.2   103  GLN103     -0.2864
     44  CB         8.5000   -0.0330    4.3330 C.3   103  GLN103      0.0394
     45  CG         7.6160   -1.0940    4.9860 C.3   103  GLN103      0.0908
     46  CD         6.1370   -0.7720    4.9130 C.2   103  GLN103      0.2608
     47  OE1        5.6710    0.2060    5.4950 O.2   103  GLN103     -0.2717
     48  NE2        5.3890   -1.6010    4.1940 N.am  103  GLN103     -0.0878
     49  N          6.7680   15.3650    6.0130 N.3   110  TYR110     -0.1241
     50  CA         5.4240   14.8420    5.8140 C.3   110  TYR110      0.1605
     51  C          4.3860   15.8450    6.3050 C.2   110  TYR110      0.2264
     52  O          4.6070   16.5500    7.2900 O.2   110  TYR110     -0.2867
     53  CB         5.2800   13.5080    6.5620 C.3   110  TYR110      0.0534
     54  CG         4.0110   12.7490    6.2540 C.ar  110  TYR110     -0.0201
     55  CD1        3.6760   12.4150    4.9390 C.ar  110  TYR110     -0.0009
     56  CD2        3.1420   12.3620    7.2750 C.ar  110  TYR110     -0.0009
     57  CE1        2.5050   11.7180    4.6490 C.ar  110  TYR110      0.0417
     58  CE2        1.9670   11.6630    6.9960 C.ar  110  TYR110      0.0417
     59  CZ         1.6560   11.3460    5.6830 C.ar  110  TYR110      0.1957
     60  OH         0.4970   10.6590    5.4030 O.3   110  TYR110     -0.2866
     61  N          1.5340   15.0720    7.5230 N.3   112  GLY112     -0.1225
     62  CA         0.8590   14.5300    8.6890 C.3   112  GLY112      0.1811
     63  C          1.4800   15.0010    9.9900 C.2   112  GLY112      0.2280
     64  O          2.6990   15.1190   10.0930 O.2   112  GLY112     -0.2866
     65  N          0.8340   13.4780   13.1290 N.3   114  GLY114     -0.1210
     66  CA         0.5770   12.4730   14.1440 C.3   114  GLY114      0.1956
     67  C          1.8040   12.1350   14.9730 C.2   114  GLY114      0.2612
     68  O          2.8060   12.8520   14.9390 O.2   114  GLY114     -0.2717
     69  N          1.7360   11.0260   15.7020 N.am  115  LEU115     -0.1965
     70  CA         2.8280   10.6030   16.5720 C.3   115  LEU115      0.1728
     71  C          4.1710   10.3860   15.8870 C.2   115  LEU115      0.2616
     72  O          5.2070   10.3690   16.5460 O.2   115  LEU115     -0.2715
     73  CB         2.4370    9.3280   17.3190 C.3   115  LEU115      0.0311
     74  CG         1.2210    9.4310   18.2460 C.3   115  LEU115      0.0022
     75  CD1        0.9790    8.0910   18.9110 C.3   115  LEU115      0.0001
     76  CD2        1.4500   10.5130   19.2930 C.3   115  LEU115      0.0001
     77  N          4.1640   10.2190   14.5710 N.am  116  TRP116     -0.1960
     78  CA         5.4130    9.9980   13.8540 C.3   116  TRP116      0.1771
     79  C          6.1050   11.2880   13.4300 C.2   116  TRP116      0.2620
     80  O          7.2070   11.2570   12.8800 O.2   116  TRP116     -0.2715
     81  CB         5.1610    9.0870   12.6470 C.3   116  TRP116      0.0590
     82  CG         4.7180    7.7080   13.0560 C.ar  116  TRP116      0.0006
     83  CD1        4.6790    7.2000   14.3290 C.ar  116  TRP116      0.0946
     84  CD2        4.2900    6.6490   12.1900 C.ar  116  TRP116      0.0152
     85  NE1        4.2560    5.8930   14.3040 N.ar  116  TRP116     -0.2442
     86  CE2        4.0100    5.5290   13.0060 C.ar  116  TRP116      0.0810
     87  CE3        4.1170    6.5360   10.8050 C.ar  116  TRP116      0.0012
     88  CZ2        3.5660    4.3100   12.4800 C.ar  116  TRP116      0.0191
     89  CZ3        3.6760    5.3250   10.2820 C.ar  116  TRP116      0.0001
     90  CH2        3.4050    4.2280   11.1210 C.ar  116  TRP116      0.0015
     91  N          5.4560   12.4210   13.6880 N.am  117  SER117     -0.1950
     92  CA         6.0250   13.7270   13.3560 C.3   117  SER117      0.1924
     93  C          6.4390   14.4560   14.6290 C.2   117  SER117      0.2314
     94  O          6.8210   15.6310   14.5940 O.2   117  SER117     -0.2863
     95  CB         5.0060   14.5770   12.5970 C.3   117  SER117      0.2116
     96  OG         4.8130   14.0810   11.2840 O.3   117  SER117     -0.2180
@<TRIPOS>BOND
     1    38    37    1
     2    39    37    1
     3    37    36    2
     4    36    35    1
     5    35    34    1
     6    34    33    1
     7    33    30    1
     8    32    31    2
     9    30    31    1
    10    30    29    1
    11    31    40   am
    12    43    42    2
    13    48    46   am
    14    44    45    1
    15    44    41    1
    16    42    41    1
    17    57    55   ar
    18    57    59   ar
    19    29    23   am
    20    46    45    1
    21    46    47    2
    22    55    54   ar
    23    40    41    1
    24    24    23    2
    25    60    59    1
    26    23    22    1
    27    59    58   ar
    28    50    49    1
    29    50    51    1
    30    50    53    1
    31    25    22    1
    32    25    26    1
    33    54    53    1
    34    54    56   ar
    35    51    52    2
    36    22    21    1
    37    58    56   ar
    38    26    27    2
    39    26    28   am
    40    61    62    1
    41    21    19   am
    42    15    14    2
    43    62    63    1
    44    20    19    2
    45    19    18    1
    46    12    11    2
    47    13    14    1
    48    13    10    1
    49    14    16   am
    50    17    18    1
    51    11    10    1
    52     9    10    1
    53    63    64    2
    54    89    87   ar
    55    89    90   ar
    56    87    84   ar
    57    90    88   ar
    58    96    95    1
    59    84    86   ar
    60    84    82   ar
    61    88    86   ar
    62    95    92    1
    63    81    82    1
    64    81    78    1
    65    80    79    2
    66    86    85   ar
    67    82    83   ar
    68    65    66    1
    69    92    91    1
    70    92    93    1
    71    79    91   am
    72    79    78    1
    73    78    77    1
    74    66    67    1
    75    85    83   ar
    76    77    71   am
    77    94    93    2
    78    68    67    2
    79    67    69   am
    80    69    70    1
    81    71    72    2
    82    71    70    1
    83    70    73    1
    84     8     6   ar
    85    73    74    1
    86     6     5    1
    87     6     7   ar
    88     5     2    1
    89    74    75    1
    90    74    76    1
    91     3     4    2
    92     3     2    1
    93     2     1    1
