@<TRIPOS>MOLECULE
tmp/1fwvA00.pdb
 83 80 0 0 0
SMALL
GASTEIGER

@<TRIPOS>ATOM
      1  N          6.7760    7.1670   20.0150 N.3    11  ASP11      -0.1239
      2  CA         6.0040    6.0540   19.4840 C.3    11  ASP11       0.1674
      3  C          6.8520    4.8730   19.0100 C.2    11  ASP11       0.2266
      4  O          6.5590    3.7300   19.3530 O.2    11  ASP11      -0.2867
      5  CB         5.0960    6.5170   18.3430 C.3    11  ASP11       0.1410
      6  CG         3.9620    5.5410   18.0750 C.2    11  ASP11       0.3668
      7  OD1        3.6920    5.2430   16.8940 O.co2  11  ASP11      -0.2456
      8  OD2        3.3330    5.0770   19.0530 O.co2  11  ASP11      -0.2456
      9  N          9.3240   13.6850    9.8020 N.3    98  ASN98      -0.1240
     10  CA         8.5110   12.4890    9.9890 C.3    98  ASN98       0.1653
     11  C          9.2010   11.1640    9.7050 C.2    98  ASN98       0.2266
     12  O         10.1090   11.0800    8.8720 O.2    98  ASN98      -0.2867
     13  CB         7.2570   12.6370    9.0980 C.3    98  ASN98       0.1155
     14  CG         6.2940   11.4740    9.2200 C.2    98  ASN98       0.2627
     15  OD1        6.4430   10.4530    8.5530 O.2    98  ASN98      -0.2716
     16  ND2        5.2900   11.6300   10.0750 N.am   98  ASN98      -0.0877
     17  N          6.1340    5.9960    8.0380 N.3   101  ASN101     -0.1225
     18  CA         5.2010    5.7220    6.9480 C.3   101  ASN101      0.1785
     19  C          5.8480    4.9780    5.7740 C.2   101  ASN101      0.2597
     20  O          7.0450    5.0960    5.5380 O.2   101  ASN101     -0.2718
     21  CB         4.5920    7.0420    6.4440 C.3   101  ASN101      0.1169
     22  CG         3.7820    7.7740    7.5180 C.2   101  ASN101      0.2627
     23  OD1        2.7860    7.2600    8.0160 O.2   101  ASN101     -0.2716
     24  ND2        4.2110    8.9790    7.8730 N.am  101  ASN101     -0.0877
     25  N          5.0350    4.2060    5.0550 N.am  102  ARG102     -0.1979
     26  CA         5.4560    3.4480    3.8700 C.3   102  ARG102      0.1597
     27  C          6.7820    2.6880    3.9090 C.2   102  ARG102      0.2287
     28  O          7.4960    2.6510    2.9090 O.2   102  ARG102     -0.2864
     29  CB         5.4900    4.3720    2.6510 C.3   102  ARG102      0.0334
     30  CG         4.1950    5.1010    2.3650 C.3   102  ARG102      0.0492
     31  CD         3.0240    4.1480    2.1930 C.3   102  ARG102      0.2205
     32  NE         1.8390    4.8710    1.7510 N.pl3 102  ARG102     -0.0865
     33  CZ         1.6290    5.2760    0.5030 C.cat 102  ARG102      0.5346
     34  NH1        2.5250    5.0190   -0.4420 N.pl3 102  ARG102      0.1354
     35  NH2        0.5290    5.9570    0.2080 N.pl3 102  ARG102      0.1354
     36  N          6.4940   15.3820    6.0130 N.3   110  TYR110     -0.1241
     37  CA         5.1550   14.8330    5.8470 C.3   110  TYR110      0.1605
     38  C          4.1230   15.8580    6.2970 C.2   110  TYR110      0.2264
     39  O          4.4020   16.6660    7.1810 O.2   110  TYR110     -0.2867
     40  CB         5.0250   13.5460    6.6710 C.3   110  TYR110      0.0534
     41  CG         3.7730   12.7300    6.4160 C.ar  110  TYR110     -0.0201
     42  CD1        3.4180   12.3440    5.1190 C.ar  110  TYR110     -0.0009
     43  CD2        2.9820   12.2820    7.4750 C.ar  110  TYR110     -0.0009
     44  CE1        2.3080   11.5200    4.8840 C.ar  110  TYR110      0.0417
     45  CE2        1.8700   11.4580    7.2540 C.ar  110  TYR110      0.0417
     46  CZ         1.5430   11.0790    5.9580 C.ar  110  TYR110      0.1957
     47  OH         0.4750   10.2370    5.7370 O.3   110  TYR110     -0.2866
     48  N          1.2260   14.9960    7.5720 N.3   112  GLY112     -0.1225
     49  CA         0.5650   14.4690    8.7550 C.3   112  GLY112      0.1811
     50  C          1.2330   14.9770   10.0220 C.2   112  GLY112      0.2280
     51  O          2.4630   15.0150   10.1130 O.2   112  GLY112     -0.2866
     52  N          0.6660   13.6580   13.2020 N.3   114  GLY114     -0.1210
     53  CA         0.4380   12.7120   14.2780 C.3   114  GLY114      0.1956
     54  C          1.6870   12.4210   15.0980 C.2   114  GLY114      0.2612
     55  O          2.6560   13.1980   15.0880 O.2   114  GLY114     -0.2717
     56  N          1.6650   11.2940   15.8050 N.am  115  LEU115     -0.1965
     57  CA         2.7750   10.8760   16.6600 C.3   115  LEU115      0.1728
     58  C          4.0930   10.6380   15.9300 C.2   115  LEU115      0.2616
     59  O          5.1510   10.5900   16.5520 O.2   115  LEU115     -0.2715
     60  CB         2.4030    9.5890   17.4090 C.3   115  LEU115      0.0311
     61  CG         1.1750    9.5990   18.3290 C.3   115  LEU115      0.0022
     62  CD1        0.9430    8.1930   18.8610 C.3   115  LEU115      0.0001
     63  CD2        1.3730   10.5800   19.4720 C.3   115  LEU115      0.0001
     64  N          4.0390   10.4780   14.6130 N.am  116  TRP116     -0.1960
     65  CA         5.2590   10.2110   13.8610 C.3   116  TRP116      0.1771
     66  C          6.0030   11.4720   13.4130 C.2   116  TRP116      0.2620
     67  O          7.0970   11.3960   12.8480 O.2   116  TRP116     -0.2715
     68  CB         4.9290    9.2910   12.6770 C.3   116  TRP116      0.0590
     69  CG         4.5340    7.9010   13.1410 C.ar  116  TRP116      0.0006
     70  CD1        4.6230    7.4150   14.4160 C.ar  116  TRP116      0.0946
     71  CD2        4.0510    6.8120   12.3340 C.ar  116  TRP116      0.0152
     72  NE1        4.2350    6.0990   14.4530 N.ar  116  TRP116     -0.2442
     73  CE2        3.8780    5.7020   13.1910 C.ar  116  TRP116      0.0810
     74  CE3        3.7520    6.6680   10.9740 C.ar  116  TRP116      0.0012
     75  CZ2        3.4180    4.4650   12.7340 C.ar  116  TRP116      0.0191
     76  CZ3        3.2900    5.4330   10.5160 C.ar  116  TRP116      0.0001
     77  CH2        3.1290    4.3490   11.3960 C.ar  116  TRP116      0.0015
     78  N          5.4110   12.6310   13.6950 N.am  117  SER117     -0.1950
     79  CA         5.9990   13.9220   13.3430 C.3   117  SER117      0.1924
     80  C          6.3700   14.6650   14.6180 C.2   117  SER117      0.2314
     81  O          6.7000   15.8520   14.5870 O.2   117  SER117     -0.2863
     82  CB         5.0030   14.7660   12.5510 C.3   117  SER117      0.2116
     83  OG         4.6580   14.1390   11.3350 O.3   117  SER117     -0.2180
@<TRIPOS>BOND
     1    34    33    1
     2    35    33    1
     3    33    32    2
     4    32    31    1
     5    31    30    1
     6    30    29    1
     7    29    26    1
     8    28    27    2
     9    26    27    1
    10    26    25    1
    11    44    42   ar
    12    44    46   ar
    13    25    19   am
    14    42    41   ar
    15    20    19    2
    16    47    46    1
    17    19    18    1
    18    37    36    1
    19    37    38    1
    20    37    40    1
    21    46    45   ar
    22    38    39    2
    23    41    40    1
    24    41    43   ar
    25    21    18    1
    26    21    22    1
    27    18    17    1
    28    45    43   ar
    29    22    24   am
    30    22    23    2
    31    48    49    1
    32    15    14    2
    33    49    50    1
    34    12    11    2
    35    13    14    1
    36    13    10    1
    37    14    16   am
    38    11    10    1
    39     9    10    1
    40    50    51    2
    41    76    74   ar
    42    76    77   ar
    43    74    71   ar
    44    83    82    1
    45    77    75   ar
    46    71    69   ar
    47    71    73   ar
    48    82    79    1
    49    68    69    1
    50    68    65    1
    51    75    73   ar
    52    67    66    2
    53    69    70   ar
    54    73    72   ar
    55    52    53    1
    56    79    78    1
    57    79    80    1
    58    66    78   am
    59    66    65    1
    60    65    64    1
    61    53    54    1
    62    70    72   ar
    63    81    80    2
    64    64    58   am
    65    55    54    2
    66    54    56   am
    67    56    57    1
    68    58    59    2
    69    58    57    1
    70    57    60    1
    71     7     6   ar
    72    60    61    1
    73     6     5    1
    74     6     8   ar
    75    61    62    1
    76    61    63    1
    77     5     2    1
    78     3     4    2
    79     3     2    1
    80     2     1    1
