@<TRIPOS>MOLECULE
tmp/1fx2A00.pdb
 111 108 0 0 0
SMALL
GASTEIGER

@<TRIPOS>ATOM
      1  N         22.7160   37.1870    3.6460 N.3    81  LEU81      -0.1231
      2  CA        22.7530   36.4810    4.9310 C.3    81  LEU81       0.1693
      3  C         22.7230   37.6320    5.9840 C.2    81  LEU81       0.2591
      4  O         21.8720   37.5950    6.9080 O.2    81  LEU81      -0.2718
      5  CB        24.0560   35.6840    5.0430 C.3    81  LEU81       0.0284
      6  CG        24.1690   34.8170    6.3180 C.3    81  LEU81       0.0019
      7  CD1       25.2900   33.7600    6.1270 C.3    81  LEU81       0.0001
      8  CD2       24.6380   35.6430    7.5480 C.3    81  LEU81       0.0001
      9  N         23.5470   38.6540    5.8850 N.am   82  GLN82      -0.1979
     10  CA        23.5280   39.6980    6.8910 C.3    82  GLN82       0.1601
     11  C         22.1830   40.3970    6.9530 C.2    82  GLN82       0.2287
     12  O         21.6670   40.6580    8.0550 O.2    82  GLN82      -0.2864
     13  CB        24.6390   40.7190    6.6340 C.3    82  GLN82       0.0394
     14  CG        26.1050   40.1030    6.6910 C.3    82  GLN82       0.0908
     15  CD        26.4510   39.6310    8.1040 C.2    82  GLN82       0.2608
     16  OE1       25.7670   40.0090    9.0780 O.2    82  GLN82      -0.2717
     17  NE2       27.3640   38.7030    8.1970 N.am   82  GLN82      -0.0878
     18  N         19.2560   38.0340    8.3190 N.3    85  PHE85      -0.1227
     19  CA        19.3670   37.8550    9.7640 C.3    85  PHE85       0.1736
     20  C         18.9460   39.1220   10.4900 C.2    85  PHE85       0.2595
     21  O         18.2730   39.0590   11.5640 O.2    85  PHE85      -0.2718
     22  CB        20.8140   37.4890   10.1410 C.3    85  PHE85       0.0547
     23  CG        21.0950   36.0170   10.0670 C.ar   85  PHE85      -0.0202
     24  CD1       20.9140   35.3040    8.8990 C.ar   85  PHE85      -0.0042
     25  CD2       21.5760   35.3440   11.2190 C.ar   85  PHE85      -0.0042
     26  CE1       21.2260   33.9180    8.8260 C.ar   85  PHE85      -0.0003
     27  CE2       21.8600   33.9650   11.1460 C.ar   85  PHE85      -0.0003
     28  CZ        21.6880   33.2650    9.9210 C.ar   85  PHE85      -0.0000
     29  N         19.2570   40.3070    9.9630 N.am   86  LEU86      -0.1980
     30  CA        18.8600   41.5600   10.5990 C.3    86  LEU86       0.1596
     31  C         17.3250   41.6680   10.5930 C.2    86  LEU86       0.2287
     32  O         16.6830   42.1170   11.5640 O.2    86  LEU86      -0.2864
     33  CB        19.4710   42.7320    9.8040 C.3    86  LEU86       0.0297
     34  CG        18.8840   44.1070   10.2090 C.3    86  LEU86       0.0022
     35  CD1       19.4340   44.5240   11.6550 C.3    86  LEU86       0.0001
     36  CD2       19.5350   45.1430    9.2070 C.3    86  LEU86       0.0001
     37  N         20.8920   40.1160   21.7980 N.3    96  ASP96      -0.1239
     38  CA        21.4080   41.4840   21.6140 C.3    96  ASP96       0.1674
     39  C         21.9260   42.0380   22.9400 C.2    96  ASP96       0.2266
     40  O         22.9850   42.6630   22.9940 O.2    96  ASP96      -0.2867
     41  CB        20.3210   42.3470   21.0210 C.3    96  ASP96       0.1410
     42  CG        20.0630   42.0000   19.5780 C.2    96  ASP96       0.3668
     43  OD1       19.1710   41.1830   19.2740 O.co2  96  ASP96      -0.2456
     44  OD2       20.8650   42.4880   18.7360 O.co2  96  ASP96      -0.2456
     45  N         21.3500   46.2710   13.9370 N.3   129  TRP129     -0.1227
     46  CA        21.7610   45.0350   14.6240 C.3   129  TRP129      0.1737
     47  C         20.5650   44.3890   15.2170 C.2   129  TRP129      0.2595
     48  O         19.6380   45.0400   15.7320 O.2   129  TRP129     -0.2718
     49  CB        22.7710   45.3780   15.7850 C.3   129  TRP129      0.0564
     50  CG        24.1070   45.9500   15.3070 C.ar  129  TRP129      0.0003
     51  CD1       24.4630   47.2710   15.2800 C.ar  129  TRP129      0.0946
     52  CD2       25.2060   45.2040   14.7950 C.ar  129  TRP129      0.0152
     53  NE1       25.7090   47.3730   14.6930 N.ar  129  TRP129     -0.2442
     54  CE2       26.2050   46.1040   14.4360 C.ar  129  TRP129      0.0810
     55  CE3       25.4370   43.8310   14.6570 C.ar  129  TRP129      0.0012
     56  CZ2       27.4900   45.6750   13.9810 C.ar  129  TRP129      0.0191
     57  CZ3       26.6940   43.4120   14.1750 C.ar  129  TRP129      0.0001
     58  CH2       27.6900   44.3210   13.8790 C.ar  129  TRP129      0.0015
     59  N         20.5720   43.0550   15.1350 N.am  130  ASN130     -0.1960
     60  CA        19.4570   42.2580   15.6820 C.3   130  ASN130      0.1819
     61  C         19.8080   40.7730   15.6110 C.2   130  ASN130      0.2622
     62  O         20.0380   40.2300   14.5100 O.2   130  ASN130     -0.2715
     63  CB        18.1960   42.4530   14.7610 C.3   130  ASN130      0.1195
     64  CG        16.9610   41.6420   15.2080 C.2   130  ASN130      0.2630
     65  OD1       16.6980   41.4370   16.3880 O.2   130  ASN130     -0.2716
     66  ND2       16.2070   41.1380   14.1960 N.am  130  ASN130     -0.0877
     67  N         19.7740   40.1080   16.7630 N.am  131  GLY131     -0.1940
     68  CA        19.9530   38.6820   16.8110 C.3   131  GLY131      0.2014
     69  C         21.3600   38.1610   16.6720 C.2   131  GLY131      0.2639
     70  O         22.3180   38.8280   17.0500 O.2   131  GLY131     -0.2714
     71  N         21.4840   36.8950   16.2260 N.am  132  LEU132     -0.1963
     72  CA        22.8290   36.2810   16.1130 C.3   132  LEU132      0.1728
     73  C         23.7190   37.0860   15.1710 C.2   132  LEU132      0.2616
     74  O         23.2680   37.4750   14.0770 O.2   132  LEU132     -0.2715
     75  CB        22.6280   34.8470   15.5290 C.3   132  LEU132      0.0311
     76  CG        21.8490   33.9120   16.4210 C.3   132  LEU132      0.0022
     77  CD1       21.6800   32.6050   15.6000 C.3   132  LEU132      0.0001
     78  CD2       22.5370   33.6160   17.7880 C.3   132  LEU132      0.0001
     79  N         24.9600   37.3100   15.5530 N.am  133  ARG133     -0.1963
     80  CA        25.8870   38.0750   14.6860 C.3   133  ARG133      0.1729
     81  C         26.8620   37.0800   14.0350 C.2   133  ARG133      0.2616
     82  O         27.6200   36.3600   14.7490 O.2   133  ARG133     -0.2715
     83  CB        26.6610   39.0990   15.5690 C.3   133  ARG133      0.0348
     84  CG        25.7890   40.1910   16.1560 C.3   133  ARG133      0.0492
     85  CD        26.6210   41.0950   17.0430 C.3   133  ARG133      0.2205
     86  NE        25.7140   42.1190   17.6430 N.pl3 133  ARG133     -0.0865
     87  CZ        26.2110   43.1580   18.3120 C.cat 133  ARG133      0.5346
     88  NH1       27.5210   43.3000   18.4670 N.pl3 133  ARG133      0.1354
     89  NH2       25.3590   44.0030   18.9030 N.pl3 133  ARG133      0.1354
     90  N         26.7890   36.9830   12.7330 N.am  134  VAL134     -0.1977
     91  CA        27.5270   35.9190   12.0050 C.3   134  VAL134      0.1596
     92  C         28.6920   36.6190   11.3060 C.2   134  VAL134      0.2287
     93  O         28.5370   37.6700   10.6710 O.2   134  VAL134     -0.2864
     94  CB        26.5880   35.3950   10.9270 C.3   134  VAL134      0.0276
     95  CG1       27.3200   34.3360   10.0550 C.3   134  VAL134      0.0022
     96  CG2       25.3960   34.6840   11.5950 C.3   134  VAL134      0.0022
     97  N         28.6980   39.9980   12.2810 N.3   174  GLY174     -0.1225
     98  CA        28.0820   41.0110   11.4450 C.3   174  GLY174      0.1811
     99  C         28.8960   41.5610   10.2820 C.2   174  GLY174      0.2280
    100  O         28.4270   42.3820    9.5200 O.2   174  GLY174     -0.2866
    101  N         26.7150   50.0410    9.2880 N.3   222  ARG222     -0.1245
    102  CA        27.2010   49.1980   10.3240 C.3   222  ARG222      0.1563
    103  C         28.7260   49.3370   10.3680 C.2   222  ARG222      0.2260
    104  O         29.4140   49.1880    9.3080 O.2   222  ARG222     -0.2867
    105  CB        26.7880   47.7590    9.9200 C.3   222  ARG222      0.0307
    106  CG        27.0700   46.7550   10.9510 C.3   222  ARG222      0.0489
    107  CD        26.6240   45.3310   10.4580 C.3   222  ARG222      0.2205
    108  NE        25.2340   44.9870   10.8290 N.pl3 222  ARG222     -0.0865
    109  CZ        24.7390   43.7970   10.5740 C.cat 222  ARG222      0.5346
    110  NH1       25.4540   42.8590    9.9560 N.pl3 222  ARG222      0.1354
    111  NH2       23.5020   43.4740   11.0340 N.pl3 222  ARG222      0.1354
@<TRIPOS>BOND
     1     1     2    1
     2     2     5    1
     3     2     3    1
     4     5     6    1
     5     9     3   am
     6     9    10    1
     7     3     4    2
     8     7     6    1
     9     6     8    1
    10    13    14    1
    11    13    10    1
    12    14    15    1
    13    10    11    1
    14    11    12    2
    15    15    17   am
    16    15    16    2
    17    18    19    1
    18    26    24   ar
    19    26    28   ar
    20    24    23   ar
    21    36    34    1
    22   101   102    1
    23   104   103    2
    24   100    99    2
    25    19    22    1
    26    19    20    1
    27    33    34    1
    28    33    30    1
    29   105   102    1
    30   105   106    1
    31    28    27   ar
    32   110   109    1
    33    29    20   am
    34    29    30    1
    35    95    94    1
    36    23    22    1
    37    23    25   ar
    38    34    35    1
    39    99    98    1
    40   102   103    1
    41   107   108    1
    42   107   106    1
    43    20    21    2
    44   109   108    2
    45   109   111    1
    46    31    30    1
    47    31    32    2
    48    93    92    2
    49    94    96    1
    50    94    91    1
    51    27    25   ar
    52    92    91    1
    53    98    97    1
    54    91    90    1
    55    90    81   am
    56    58    56   ar
    57    58    57   ar
    58    45    46    1
    59    56    54   ar
    60    81    80    1
    61    81    82    2
    62    74    73    2
    63    57    55   ar
    64    66    64   am
    65    54    53   ar
    66    54    52   ar
    67    62    61    2
    68    46    47    1
    69    46    49    1
    70    55    52   ar
    71    80    79    1
    72    80    83    1
    73    53    51   ar
    74    63    64    1
    75    63    60    1
    76    52    50   ar
    77    59    47   am
    78    59    60    1
    79    73    79   am
    80    73    72    1
    81    64    65    2
    82    47    48    2
    83    51    50   ar
    84    50    49    1
    85    75    72    1
    86    75    76    1
    87    83    84    1
    88    77    76    1
    89    61    60    1
    90    61    67   am
    91    72    71    1
    92    84    85    1
    93    71    69   am
    94    76    78    1
    95    69    68    1
    96    69    70    2
    97    67    68    1
    98    85    86    1
    99    86    87    2
   100    87    88    1
   101    87    89    1
   102    44    42   ar
   103    43    42   ar
   104    42    41    1
   105    41    38    1
   106    38    37    1
   107    38    39    1
   108    39    40    2
