@<TRIPOS>MOLECULE
tmp/1fx5B01.pdb
 115 110 0 0 0
SMALL
GASTEIGER

@<TRIPOS>ATOM
      1  N         26.2010  -11.7360    2.6510 N.3    44  GLU44      -0.1245
      2  CA        25.3140  -10.6680    3.1090 C.3    44  GLU44       0.1567
      3  C         25.3230  -10.8490    4.6220 C.2    44  GLU44       0.2260
      4  O         24.8760  -11.8830    5.1330 O.2    44  GLU44      -0.2867
      5  CB        23.9000  -10.8490    2.5640 C.3    44  GLU44       0.0388
      6  CG        23.7820  -10.6360    1.0650 C.3    44  GLU44       0.1160
      7  CD        22.3570  -10.7640    0.5760 C.2    44  GLU44       0.3649
      8  OE1       21.7710  -11.8540    0.7390 O.co2  44  GLU44      -0.2457
      9  OE2       21.8120   -9.7810    0.0370 O.co2  44  GLU44      -0.2457
     10  N         30.0210   -1.1960    1.2050 N.3    86  THR86      -0.1203
     11  CA        28.5730   -1.2920    1.4360 C.3    86  THR86       0.1994
     12  C         28.3110   -1.5680    2.9370 C.2    86  THR86       0.2617
     13  O         29.2670   -1.8470    3.6680 O.2    86  THR86      -0.2717
     14  CB        27.9860   -2.4530    0.6040 C.3    86  THR86       0.1784
     15  OG1       28.4890   -3.7100    1.0860 O.3    86  THR86      -0.2211
     16  CG2       28.3560   -2.2950   -0.8640 C.3    86  THR86       0.0376
     17  N         27.0820   -1.4100    3.4480 N.am   87  ASP87      -0.1973
     18  CA        25.8680   -0.9970    2.7360 C.3    87  ASP87       0.1709
     19  C         25.2890    0.2540    3.4160 C.2    87  ASP87       0.2293
     20  O         24.5910    1.0570    2.7830 O.2    87  ASP87      -0.2864
     21  CB        24.8220   -2.1050    2.7750 C.3    87  ASP87       0.1436
     22  CG        25.0230   -3.1180    1.6820 C.2    87  ASP87       0.3671
     23  OD1       25.6760   -4.1480    1.9330 O.co2  87  ASP87      -0.2456
     24  OD2       24.5280   -2.8760    0.5660 O.co2  87  ASP87      -0.2456
     25  N         16.8150   -9.9560    5.6610 N.3   102  ARG102     -0.1245
     26  CA        17.9880  -10.1680    4.8160 C.3   102  ARG102      0.1563
     27  C         18.9690   -9.0040    4.9030 C.2   102  ARG102      0.2260
     28  O         18.5610   -7.8420    4.9070 O.2   102  ARG102     -0.2867
     29  CB        17.5280  -10.3570    3.3700 C.3   102  ARG102      0.0307
     30  CG        18.6210  -10.5940    2.3640 C.3   102  ARG102      0.0489
     31  CD        17.9780  -10.8960    1.0360 C.3   102  ARG102      0.2205
     32  NE        18.9700  -11.0660   -0.0120 N.pl3 102  ARG102     -0.0865
     33  CZ        18.7190  -10.9180   -1.3070 C.cat 102  ARG102      0.5346
     34  NH1       17.4920  -10.5930   -1.7150 N.pl3 102  ARG102      0.1354
     35  NH2       19.6990  -11.0780   -2.1890 N.pl3 102  ARG102      0.1354
     36  N         22.9610   -7.2620    3.6110 N.3   104  GLY104     -0.1210
     37  CA        23.4500   -6.6660    2.3850 C.3   104  GLY104      0.1956
     38  C         22.7360   -5.3470    2.1650 C.2   104  GLY104      0.2612
     39  O         22.6350   -4.5320    3.0890 O.2   104  GLY104     -0.2717
     40  N         22.2140   -5.1540    0.9530 N.am  105  GLY105     -0.1942
     41  CA        21.5020   -3.9280    0.6220 C.3   105  GLY105      0.2014
     42  C         20.1110   -3.8290    1.2390 C.2   105  GLY105      0.2638
     43  O         19.4170   -2.8230    1.0420 O.2   105  GLY105     -0.2714
     44  N         19.6860   -4.8680    1.9620 N.am  106  TYR106     -0.1973
     45  CA        18.3670   -4.8790    2.6020 C.3   106  TYR106      0.1639
     46  C         18.3440   -4.4370    4.0790 C.2   106  TYR106      0.2290
     47  O         17.2890   -4.4300    4.7210 O.2   106  TYR106     -0.2864
     48  CB        17.7150   -6.2500    2.4170 C.3   106  TYR106      0.0560
     49  CG        17.5610   -6.5710    0.9620 C.ar  106  TYR106     -0.0198
     50  CD1       18.3970   -7.4830    0.3410 C.ar  106  TYR106     -0.0009
     51  CD2       16.6500   -5.8740    0.1800 C.ar  106  TYR106     -0.0009
     52  CE1       18.3380   -7.6830   -1.0180 C.ar  106  TYR106      0.0417
     53  CE2       16.5830   -6.0650   -1.1770 C.ar  106  TYR106      0.0417
     54  CZ        17.4310   -6.9690   -1.7730 C.ar  106  TYR106      0.1957
     55  OH        17.3860   -7.1290   -3.1390 O.3   106  TYR106     -0.2866
     56  N         25.8160    2.7020   -0.7210 N.3   129  ILE129     -0.1245
     57  CA        25.9910    2.2850   -2.1080 C.3   129  ILE129      0.1561
     58  C         24.6920    2.3340   -2.9200 C.2   129  ILE129      0.2260
     59  O         23.6440    1.8810   -2.4550 O.2   129  ILE129     -0.2867
     60  CB        26.6180    0.8580   -2.2020 C.3   129  ILE129      0.0252
     61  CG1       27.3530    0.6780   -3.5440 C.3   129  ILE129      0.0019
     62  CG2       25.5420   -0.2340   -2.0510 C.3   129  ILE129      0.0019
     63  CD1       28.6350    1.4980   -3.6810 C.3   129  ILE129      0.0001
     64  N         25.0470   -0.9900   -8.6070 N.3   133  VAL133     -0.1231
     65  CA        25.1410   -2.0850   -7.6310 C.3   133  VAL133      0.1692
     66  C         23.7460   -2.4210   -7.0710 C.2   133  VAL133      0.2592
     67  O         23.3380   -3.5880   -7.0480 O.2   133  VAL133     -0.2718
     68  CB        26.1310   -1.7490   -6.4810 C.3   133  VAL133      0.0266
     69  CG1       26.2810   -2.9480   -5.5510 C.3   133  VAL133      0.0020
     70  CG2       27.4890   -1.3460   -7.0480 C.3   133  VAL133      0.0020
     71  N         23.0270   -1.4060   -6.6020 N.am  134  ASN134     -0.1974
     72  CA        21.6840   -1.6150   -6.0630 C.3   134  ASN134      0.1688
     73  C         20.8350   -0.8770   -7.0830 C.2   134  ASN134      0.2292
     74  O         20.7560    0.3560   -7.0530 O.2   134  ASN134     -0.2864
     75  CB        21.5220   -0.9860   -4.6640 C.3   134  ASN134      0.1181
     76  CG        22.0240   -1.8970   -3.5270 C.2   134  ASN134      0.2629
     77  OD1       22.0990   -1.4750   -2.3670 O.2   134  ASN134     -0.2716
     78  ND2       22.3280   -3.1530   -3.8450 N.am  134  ASN134     -0.0877
     79  N         17.6630   -0.4020   -7.4280 N.3   136  TRP136     -0.1241
     80  CA        16.5430    0.3750   -6.9030 C.3   136  TRP136      0.1605
     81  C         16.9740    1.7380   -6.3420 C.2   136  TRP136      0.2264
     82  O         16.1290    2.5810   -6.0380 O.2   136  TRP136     -0.2867
     83  CB        15.8310   -0.4270   -5.8120 C.3   136  TRP136      0.0550
     84  CG        16.7530   -0.8080   -4.6730 C.ar  136  TRP136      0.0003
     85  CD1       17.0990   -0.0330   -3.5870 C.ar  136  TRP136      0.0946
     86  CD2       17.4960   -2.0280   -4.5390 C.ar  136  TRP136      0.0152
     87  NE1       18.0160   -0.6950   -2.8020 N.ar  136  TRP136     -0.2442
     88  CE2       18.2750   -1.9220   -3.3620 C.ar  136  TRP136      0.0810
     89  CE3       17.5790   -3.1990   -5.3030 C.ar  136  TRP136      0.0012
     90  CZ2       19.1260   -2.9480   -2.9310 C.ar  136  TRP136      0.0191
     91  CZ3       18.4250   -4.2150   -4.8710 C.ar  136  TRP136      0.0001
     92  CH2       19.1860   -4.0810   -3.6960 C.ar  136  TRP136      0.0015
     93  N         28.5630   -6.1900    2.6030 N.3   219  TYR219     -0.1241
     94  CA        28.6790   -7.3070    1.6710 C.3   219  TYR219      0.1605
     95  C         30.1230   -7.7560    1.5550 C.2   219  TYR219      0.2264
     96  O         31.0460   -6.9350    1.6470 O.2   219  TYR219     -0.2867
     97  CB        28.1740   -6.9030    0.2900 C.3   219  TYR219      0.0534
     98  CG        27.9170   -8.0760   -0.6470 C.ar  219  TYR219     -0.0201
     99  CD1       28.5920   -8.1860   -1.8660 C.ar  219  TYR219     -0.0009
    100  CD2       26.9420   -9.0260   -0.3550 C.ar  219  TYR219     -0.0009
    101  CE1       28.2880   -9.2010   -2.7690 C.ar  219  TYR219      0.0417
    102  CE2       26.6350  -10.0410   -1.2500 C.ar  219  TYR219      0.0417
    103  CZ        27.3080  -10.1190   -2.4580 C.ar  219  TYR219      0.1957
    104  OH        26.9600  -11.0920   -3.3710 O.3   219  TYR219     -0.2866
    105  N         33.4420   -5.8610   -0.1270 N.3   222  ARG222     -0.1245
    106  CA        33.3500   -4.4090    0.0640 C.3   222  ARG222      0.1563
    107  C         32.9750   -4.0720    1.5290 C.2   222  ARG222      0.2260
    108  O         32.4260   -2.9910    1.8310 O.2   222  ARG222     -0.2867
    109  CB        32.3350   -3.8280   -0.9190 C.3   222  ARG222      0.0307
    110  CG        31.1750   -4.7710   -1.2030 C.3   222  ARG222      0.0489
    111  CD        31.0230   -4.9780   -2.6830 C.3   222  ARG222      0.2205
    112  NE        30.8690   -3.6910   -3.3600 N.pl3 222  ARG222     -0.0865
    113  CZ        30.9870   -3.5040   -4.6740 C.cat 222  ARG222      0.5346
    114  NH1       31.2630   -4.5320   -5.4730 N.pl3 222  ARG222      0.1354
    115  NH2       30.8500   -2.2810   -5.1900 N.pl3 222  ARG222      0.1354
@<TRIPOS>BOND
     1    64    65    1
     2    65    66    1
     3    65    68    1
     4    79    80    1
     5    73    74    2
     6    73    72    1
     7    66    67    2
     8    66    71   am
     9    70    68    1
    10    80    81    1
    11    80    83    1
    12    71    72    1
    13    68    69    1
    14    81    82    2
    15    72    75    1
    16    83    84    1
    17   114   113    1
    18    89    91   ar
    19    89    86   ar
    20   115   113    1
    21    91    92   ar
    22   113   112    2
    23    84    86   ar
    24    84    85   ar
    25    75    76    1
    26    86    88   ar
    27    78    76   am
    28    92    90   ar
    29    63    61    1
    30    85    87   ar
    31    61    60    1
    32    76    77    2
    33   104   103    1
    34    88    90   ar
    35    88    87   ar
    36   112   111    1
    37    55    54    1
    38    58    59    2
    39    58    57    1
    40   101   103   ar
    41   101    99   ar
    42   111   110    1
    43   103   102   ar
    44    60    57    1
    45    60    62    1
    46    35    33    1
    47    57    56    1
    48    99    98   ar
    49    54    53   ar
    50    54    52   ar
    51    34    33    1
    52    33    32    2
    53   102   100   ar
    54   110   109    1
    55    53    51   ar
    56    52    50   ar
    57   109   106    1
    58    16    14    1
    59    98   100   ar
    60    98    97    1
    61   105   106    1
    62    32    31    1
    63     9     7   ar
    64   106   107    1
    65    51    49   ar
    66    97    94    1
    67    50    49   ar
    68    24    22   ar
    69     7     8   ar
    70     7     6    1
    71    14    15    1
    72    14    11    1
    73    41    40    1
    74    41    42    1
    75    40    38   am
    76    49    48    1
    77    31    30    1
    78    43    42    2
    79     6     5    1
    80    10    11    1
    81    42    44   am
    82    11    12    1
    83   107   108    2
    84    95    96    2
    85    95    94    1
    86    94    93    1
    87    22    23   ar
    88    22    21    1
    89    44    45    1
    90    38    37    1
    91    38    39    2
    92    30    29    1
    93    37    36    1
    94    48    45    1
    95     5     2    1
    96    45    46    1
    97     1     2    1
    98    18    21    1
    99    18    19    1
   100    18    17    1
   101    20    19    2
   102    12    17   am
   103    12    13    2
   104     2     3    1
   105    29    26    1
   106    46    47    2
   107     3     4    2
   108    26    27    1
   109    26    25    1
   110    27    28    2
