@<TRIPOS>MOLECULE
tmp/1fx5A00.pdb
 79 75 0 0 0
SMALL
GASTEIGER

@<TRIPOS>ATOM
      1  N          2.5040  -13.0930   39.8330 N.3    22  GLY22      -0.1210
      2  CA         1.4470  -13.2720   40.8110 C.3    22  GLY22       0.1956
      3  C          0.1200  -12.7770   40.2720 C.2    22  GLY22       0.2611
      4  O         -0.1230  -12.8440   39.0620 O.2    22  GLY22      -0.2717
      5  N         -0.6900  -12.1650   41.1220 N.am   23  ASN23      -0.1974
      6  CA        -1.9760  -11.6850   40.6630 C.3    23  ASN23       0.1688
      7  C         -2.1720  -10.1960   40.4610 C.2    23  ASN23       0.2292
      8  O         -3.2120   -9.6560   40.8290 O.2    23  ASN23      -0.2864
      9  CB        -3.0850  -12.3010   41.5310 C.3    23  ASN23       0.1181
     10  CG        -3.2630  -13.7930   41.2480 C.2    23  ASN23       0.2629
     11  OD1       -3.6200  -14.1570   40.1180 O.2    23  ASN23      -0.2716
     12  ND2       -2.9320  -14.6580   42.2060 N.am   23  ASN23      -0.0877
     13  N        -11.4460  -17.4830   46.0910 N.3    40  ASN40      -0.1225
     14  CA       -10.8380  -18.5510   45.2990 C.3    40  ASN40       0.1785
     15  C         -9.3290  -18.2540   45.1100 C.2    40  ASN40       0.2597
     16  O         -8.7900  -18.4100   43.9980 O.2    40  ASN40      -0.2718
     17  CB       -11.5070  -18.6020   43.9320 C.3    40  ASN40       0.1169
     18  CG       -11.3970  -17.2800   43.2030 C.2    40  ASN40       0.2627
     19  OD1      -11.3700  -16.2090   43.8310 O.2    40  ASN40      -0.2716
     20  ND2      -11.3120  -17.3370   41.8790 N.am   40  ASN40      -0.0877
     21  N         -8.6580  -17.8140   46.1780 N.am   41  LEU41      -0.1966
     22  CA        -7.2230  -17.4850   46.1400 C.3    41  LEU41       0.1713
     23  C         -6.5500  -18.1560   47.3180 C.2    41  LEU41       0.2458
     24  O         -7.2300  -18.5500   48.2570 O.2    41  LEU41      -0.2730
     25  CB        -7.0250  -15.9700   46.3010 C.3    41  LEU41       0.0310
     26  CG        -7.5570  -15.0120   45.2330 C.3    41  LEU41       0.0022
     27  CD1       -7.4850  -13.6020   45.7840 C.3    41  LEU41       0.0001
     28  CD2       -6.7840  -15.1410   43.9020 C.3    41  LEU41       0.0001
     29  N         -5.2190  -18.3230   47.2760 N.am   42  PRO42      -0.2727
     30  CA        -4.4700  -18.9520   48.3840 C.3    42  PRO42       0.1402
     31  C         -4.6410  -18.0600   49.6260 C.2    42  PRO42       0.2269
     32  O         -4.9750  -16.8860   49.4760 O.2    42  PRO42      -0.2865
     33  CB        -3.0120  -18.8660   47.9170 C.3    42  PRO42       0.0296
     34  CG        -3.1090  -18.7630   46.4280 C.3    42  PRO42       0.0237
     35  CD        -4.3290  -17.9430   46.1620 C.3    42  PRO42       0.0939
     36  N         -2.3770  -16.6790   51.6150 N.3    44  GLU44      -0.1231
     37  CA        -1.4450  -15.5580   51.4820 C.3    44  GLU44       0.1699
     38  C         -1.4290  -15.2920   49.9750 C.2    44  GLU44       0.2593
     39  O         -0.9340  -16.1200   49.2070 O.2    44  GLU44      -0.2718
     40  CB        -0.0530  -15.9470   52.0130 C.3    44  GLU44       0.0402
     41  CG        -0.0490  -16.1150   53.5370 C.3    44  GLU44       0.1161
     42  CD         1.2810  -16.5670   54.1250 C.2    44  GLU44       0.3649
     43  OE1        2.0300  -15.7340   54.6620 O.co2  44  GLU44      -0.2457
     44  OE2        1.5610  -17.7680   54.0980 O.co2  44  GLU44      -0.2457
     45  N         -1.9680  -14.1560   49.5440 N.am   45  THR45      -0.1939
     46  CA        -1.9950  -13.8530   48.1230 C.3    45  THR45       0.2031
     47  C         -1.4300  -12.4600   47.7920 C.2    45  THR45       0.2681
     48  O         -1.4540  -11.5580   48.6430 O.2    45  THR45      -0.2710
     49  CB        -3.4490  -14.0290   47.5900 C.3    45  THR45       0.1808
     50  OG1       -3.4780  -13.8620   46.1690 O.3    45  THR45      -0.2208
     51  CG2       -4.3900  -13.0360   48.2360 C.3    45  THR45       0.0379
     52  N         -0.8880  -12.2980   46.5790 N.am   46  GLY46      -0.1729
     53  CA        -0.3250  -11.0150   46.1810 C.2    46  GLY46       0.1340
     54  C          0.1440  -10.9190   44.7260 C.2    46  GLY46       0.2521
     55  O         -0.0460  -11.8720   43.9490 O.2    46  GLY46      -0.2816
     56  N          8.9060  -14.3060   42.3920 N.3   100  LEU100     -0.1231
     57  CA         7.8730  -13.8870   43.3470 C.3   100  LEU100      0.1693
     58  C          8.0970  -14.8330   44.5430 C.2   100  LEU100      0.2591
     59  O          8.2840  -16.0320   44.3450 O.2   100  LEU100     -0.2718
     60  CB         6.4880  -14.1800   42.7770 C.3   100  LEU100      0.0284
     61  CG         5.2050  -13.5320   43.3070 C.3   100  LEU100      0.0019
     62  CD1        4.0640  -14.4490   42.9540 C.3   100  LEU100      0.0001
     63  CD2        5.2180  -13.3430   44.7760 C.3   100  LEU100      0.0001
     64  N          8.1190  -14.3100   45.7700 N.am  101  ARG101     -0.1980
     65  CA         8.3220  -15.1610   46.9410 C.3   101  ARG101      0.1597
     66  C          7.0450  -15.2370   47.7530 C.2   101  ARG101      0.2287
     67  O          5.9550  -15.1590   47.1790 O.2   101  ARG101     -0.2864
     68  CB         9.5190  -14.6960   47.7820 C.3   101  ARG101      0.0334
     69  CG        10.8540  -14.9990   47.1100 C.3   101  ARG101      0.0492
     70  CD        12.0190  -14.4240   47.8730 C.3   101  ARG101      0.2205
     71  NE        13.2860  -14.6420   47.1810 N.pl3 101  ARG101     -0.0865
     72  CZ        13.9280  -13.7180   46.4640 C.cat 101  ARG101      0.5346
     73  NH1       13.4290  -12.4940   46.3380 N.pl3 101  ARG101      0.1354
     74  NH2       15.0780  -14.0150   45.8780 N.pl3 101  ARG101      0.1354
     75  N          3.8410  -14.2160   49.9080 N.3   103  ALA103     -0.1245
     76  CA         2.9510  -13.0600   50.0020 C.3   103  ALA103      0.1562
     77  C          2.4510  -12.8210   51.4450 C.2   103  ALA103      0.2260
     78  O          3.1830  -13.1020   52.4130 O.2   103  ALA103     -0.2867
     79  CB         1.8080  -13.2090   49.0250 C.3   103  ALA103      0.0290
@<TRIPOS>BOND
     1     4     3    2
     2     1     2    1
     3    11    10    2
     4     3     2    1
     5     3     5   am
     6     7     6    1
     7     7     8    2
     8     6     5    1
     9     6     9    1
    10    10     9    1
    11    10    12   am
    12    20    18   am
    13    56    57    1
    14    60    61    1
    15    60    57    1
    16    62    61    1
    17    18    19    2
    18    18    17    1
    19    61    63    1
    20    57    58    1
    21    28    26    1
    22    17    14    1
    23    55    54    2
    24    16    15    2
    25    59    58    2
    26    58    64   am
    27    54    53    1
    28    15    14    1
    29    15    21   am
    30    26    27    1
    31    26    25    1
    32    14    13    1
    33    64    65    1
    34    74    72    1
    35    22    21    1
    36    22    25    1
    37    22    23    1
    38    35    34    1
    39    35    29    1
    40    50    49    1
    41    53    52    2
    42    73    72    1
    43    34    33    1
    44    72    71    2
    45    52    47    1
    46    65    66    1
    47    65    68    1
    48    69    68    1
    49    69    70    1
    50    67    66    2
    51    71    70    1
    52    29    23   am
    53    29    30    1
    54    23    24    2
    55    49    46    1
    56    49    51    1
    57    47    46    1
    58    47    48    2
    59    33    30    1
    60    46    45    1
    61    30    31    1
    62    79    76    1
    63    39    38    2
    64    32    31    2
    65    45    38   am
    66    75    76    1
    67    38    37    1
    68    76    77    1
    69    77    78    2
    70    37    36    1
    71    37    40    1
    72    40    41    1
    73    41    42    1
    74    44    42   ar
    75    42    43   ar
