@<TRIPOS>MOLECULE
tmp/1fx9A00.pdb
 143 139 0 0 0
SMALL
GASTEIGER

@<TRIPOS>ATOM
      1  N         42.1010   42.1970   38.3210 N.3     2  LEU2       -0.1245
      2  CA        42.3880   40.9200   37.7050 C.3     2  LEU2        0.1561
      3  C         43.8650   40.7360   37.4180 C.2     2  LEU2        0.2260
      4  O         44.4210   39.6610   37.6350 O.2     2  LEU2       -0.2867
      5  CB        41.6020   40.7670   36.3900 C.3     2  LEU2        0.0270
      6  CG        42.0480   39.5520   35.5630 C.3     2  LEU2        0.0019
      7  CD1       41.4300   38.2770   36.1100 C.3     2  LEU2        0.0001
      8  CD2       41.6910   39.7450   34.0960 C.3     2  LEU2        0.0001
      9  N         45.4040   39.6930   40.4190 N.3     5  PHE5       -0.1227
     10  CA        45.1060   38.2930   40.7420 C.3     5  PHE5        0.1736
     11  C         46.0170   37.3810   39.9260 C.2     5  PHE5        0.2595
     12  O         46.5100   36.3630   40.4270 O.2     5  PHE5       -0.2718
     13  CB        43.6250   38.0020   40.5380 C.3     5  PHE5        0.0547
     14  CG        43.1410   36.5950   40.8440 C.ar    5  PHE5       -0.0202
     15  CD1       43.6520   35.8410   41.8830 C.ar    5  PHE5       -0.0042
     16  CD2       42.1440   36.0370   40.0550 C.ar    5  PHE5       -0.0042
     17  CE1       43.1860   34.5600   42.1380 C.ar    5  PHE5       -0.0003
     18  CE2       41.6660   34.7630   40.2790 C.ar    5  PHE5       -0.0003
     19  CZ        42.1990   34.0230   41.3280 C.ar    5  PHE5       -0.0000
     20  N         46.2780   37.7420   38.6660 N.am    6  ARG6       -0.1980
     21  CA        47.1980   36.9340   37.8630 C.3     6  ARG6        0.1597
     22  C         48.6130   36.9640   38.4290 C.2     6  ARG6        0.2287
     23  O         49.3750   35.9980   38.4290 O.2     6  ARG6       -0.2864
     24  CB        47.2360   37.4140   36.4050 C.3     6  ARG6        0.0334
     25  CG        48.4100   36.7480   35.6700 C.3     6  ARG6        0.0492
     26  CD        48.4200   37.0670   34.1890 C.3     6  ARG6        0.2205
     27  NE        49.5090   36.3930   33.4920 N.pl3   6  ARG6       -0.0865
     28  CZ        50.7700   36.7950   33.5150 C.cat   6  ARG6        0.5346
     29  NH1       51.6910   36.1180   32.8490 N.pl3   6  ARG6        0.1354
     30  NH2       51.1210   37.8690   34.2040 N.pl3   6  ARG6        0.1354
     31  N         48.8850   34.6910   41.5270 N.3     9  ILE9       -0.1245
     32  CA        49.0380   33.2810   41.1740 C.3     9  ILE9        0.1561
     33  C         50.4950   32.9710   40.8520 C.2     9  ILE9        0.2260
     34  O         51.0480   31.9920   41.3630 O.2     9  ILE9       -0.2867
     35  CB        48.1020   32.9000   40.0180 C.3     9  ILE9        0.0252
     36  CG1       46.6320   33.2510   40.2910 C.3     9  ILE9        0.0019
     37  CG2       48.2630   31.4280   39.6860 C.3     9  ILE9        0.0019
     38  CD1       45.7030   33.1000   39.1070 C.3     9  ILE9        0.0001
     39  N         48.8420   31.5150   34.3170 N.3    18  PRO18      -0.2102
     40  CA        47.5150   31.5750   34.9260 C.3    18  PRO18       0.1504
     41  C         46.3320   31.5830   33.9650 C.2    18  PRO18       0.2575
     42  O         45.3780   30.8300   34.2420 O.2    18  PRO18      -0.2718
     43  CB        47.5970   32.8830   35.7280 C.3    18  PRO18       0.0282
     44  CG        49.0580   33.0360   36.0560 C.3    18  PRO18       0.0208
     45  CD        49.7610   32.5570   34.8240 C.3    18  PRO18       0.0893
     46  N         46.2920   32.3550   32.8880 N.am   19  LEU19      -0.1980
     47  CA        45.1630   32.3330   31.9580 C.3    19  LEU19       0.1596
     48  C         45.1020   30.9870   31.2310 C.2    19  LEU19       0.2287
     49  O         44.0360   30.4200   31.0420 O.2    19  LEU19      -0.2864
     50  CB        45.2380   33.4060   30.8870 C.3    19  LEU19       0.0297
     51  CG        44.8420   34.8530   31.1280 C.3    19  LEU19       0.0022
     52  CD1       43.7590   35.0020   32.1920 C.3    19  LEU19       0.0001
     53  CD2       46.0870   35.6520   31.4820 C.3    19  LEU19       0.0001
     54  N         44.2820   28.2410   34.2400 N.3    22  PHE22      -0.1227
     55  CA        43.1110   28.3340   35.1040 C.3    22  PHE22       0.1736
     56  C         41.8640   28.9420   34.4940 C.2    22  PHE22       0.2595
     57  O         40.7920   28.8370   35.1030 O.2    22  PHE22      -0.2718
     58  CB        43.4920   29.1860   36.3410 C.3    22  PHE22       0.0547
     59  CG        44.6530   28.5390   37.0890 C.ar   22  PHE22      -0.0202
     60  CD1       44.5150   27.2500   37.5730 C.ar   22  PHE22      -0.0042
     61  CD2       45.8360   29.2200   37.2950 C.ar   22  PHE22      -0.0042
     62  CE1       45.5650   26.6540   38.2450 C.ar   22  PHE22      -0.0003
     63  CE2       46.8960   28.6190   37.9470 C.ar   22  PHE22      -0.0003
     64  CZ        46.7520   27.3280   38.4240 C.ar   22  PHE22      -0.0000
     65  N         41.9670   29.5880   33.3360 N.am   23  ASN23      -0.1974
     66  CA        40.7890   30.1470   32.6750 C.3    23  ASN23       0.1688
     67  C         40.2360   29.1580   31.6490 C.2    23  ASN23       0.2292
     68  O         40.7940   29.0020   30.5610 O.2    23  ASN23      -0.2864
     69  CB        41.1460   31.4770   32.0190 C.3    23  ASN23       0.1181
     70  CG        40.0710   31.8980   31.0340 C.2    23  ASN23       0.2629
     71  OD1       40.2880   31.8260   29.8270 O.2    23  ASN23      -0.2716
     72  ND2       38.9410   32.3250   31.5790 N.am   23  ASN23      -0.0877
     73  N         33.9780   26.0560   37.0780 N.3    28  TYR28      -0.1241
     74  CA        33.9940   27.3390   37.7700 C.3    28  TYR28       0.1605
     75  C         35.2610   28.1430   37.5730 C.2    28  TYR28       0.2264
     76  O         35.2390   29.3180   37.9670 O.2    28  TYR28      -0.2867
     77  CB        33.7980   27.1350   39.2930 C.3    28  TYR28       0.0534
     78  CG        32.3420   26.8410   39.6050 C.ar   28  TYR28      -0.0201
     79  CD1       31.4500   27.8530   39.9570 C.ar   28  TYR28      -0.0009
     80  CD2       31.8940   25.5270   39.5300 C.ar   28  TYR28      -0.0009
     81  CE1       30.1310   27.5520   40.2330 C.ar   28  TYR28       0.0417
     82  CE2       30.5760   25.2150   39.8000 C.ar   28  TYR28       0.0417
     83  CZ        29.7180   26.2420   40.1470 C.ar   28  TYR28       0.1957
     84  OH        28.4130   25.9110   40.4130 O.3    28  TYR28      -0.2866
     85  N         37.0300   30.2420   35.2770 N.3    30  GLY30      -0.1210
     86  CA        36.8510   30.9900   34.0410 C.3    30  GLY30       0.1956
     87  C         35.5270   31.7380   34.1100 C.2    30  GLY30       0.2611
     88  O         34.6360   31.2540   34.8100 O.2    30  GLY30      -0.2717
     89  N         35.4040   32.8700   33.4240 N.am   31  LEU31      -0.1979
     90  CA        34.1950   33.6740   33.5730 C.3    31  LEU31       0.1596
     91  C         32.9580   32.8330   33.2390 C.2    31  LEU31       0.2287
     92  O         32.7980   32.3440   32.1280 O.2    31  LEU31      -0.2864
     93  CB        34.1630   34.9450   32.7230 C.3    31  LEU31       0.0297
     94  CG        32.8310   35.7040   32.8070 C.3    31  LEU31       0.0022
     95  CD1       32.5060   36.0270   34.2570 C.3    31  LEU31       0.0001
     96  CD2       32.8670   36.9600   31.9530 C.3    31  LEU31       0.0001
     97  N         37.7510   27.6010   42.7820 N.3    45  CYS45      -0.1235
     98  CA        37.2480   28.6460   41.8950 C.3    45  CYS45       0.1677
     99  C         35.8460   29.0640   42.2720 C.2    45  CYS45       0.2270
    100  O         35.5110   30.2520   42.2590 O.2    45  CYS45      -0.2867
    101  CB        37.3280   28.1500   40.4470 C.3    45  CYS45       0.0956
    102  SG        39.0410   28.2050   39.8380 S.3    45  CYS45      -0.0801
    103  N         36.1940   31.3730   45.2230 N.3    48  HIS48      -0.1226
    104  CA        36.5380   32.7320   44.8050 C.3    48  HIS48       0.1752
    105  C         35.3240   33.4270   44.1980 C.2    48  HIS48       0.2596
    106  O         35.1020   34.6200   44.4110 O.2    48  HIS48      -0.2718
    107  CB        37.7130   32.7200   43.8230 C.3    48  HIS48       0.0759
    108  CG        38.2850   34.0650   43.4830 C.ar   48  HIS48       0.0818
    109  ND1       37.8590   34.8110   42.4030 N.ar   48  HIS48      -0.2268
    110  CD2       39.2470   34.8110   44.0680 C.ar   48  HIS48       0.1154
    111  CE1       38.5330   35.9480   42.3470 C.ar   48  HIS48       0.1986
    112  NE2       39.3880   35.9810   43.3520 N.ar   48  HIS48      -0.2212
    113  N         34.5060   32.6990   43.4430 N.am   49  ASP49      -0.1974
    114  CA        33.3300   33.3220   42.8350 C.3    49  ASP49       0.1709
    115  C         32.3590   33.7840   43.9180 C.2    49  ASP49       0.2293
    116  O         31.7300   34.8370   43.8080 O.2    49  ASP49      -0.2864
    117  CB        32.6040   32.3590   41.9000 C.3    49  ASP49       0.1436
    118  CG        33.2990   32.0700   40.5930 C.2    49  ASP49       0.3671
    119  OD1       34.2700   32.7630   40.2250 O.co2  49  ASP49      -0.2456
    120  OD2       32.8930   31.1280   39.8680 O.co2  49  ASP49      -0.2456
    121  N         36.8240   42.5220   40.0030 N.3    69  TYR69      -0.1241
    122  CA        38.0110   42.4530   39.1590 C.3    69  TYR69       0.1605
    123  C         38.4760   43.8120   38.6530 C.2    69  TYR69       0.2264
    124  O         39.5330   43.9380   38.0240 O.2    69  TYR69      -0.2867
    125  CB        37.7180   41.4950   37.9880 C.3    69  TYR69       0.0534
    126  CG        37.9470   40.0390   38.3320 C.ar   69  TYR69      -0.0201
    127  CD1       39.0990   39.6350   38.9980 C.ar   69  TYR69      -0.0009
    128  CD2       37.0300   39.0560   37.9960 C.ar   69  TYR69      -0.0009
    129  CE1       39.3380   38.3160   39.3240 C.ar   69  TYR69       0.0417
    130  CE2       37.2470   37.7300   38.3190 C.ar   69  TYR69       0.0417
    131  CZ        38.3970   37.3620   38.9820 C.ar   69  TYR69       0.1957
    132  OH        38.6280   36.0450   39.3030 O.3    69  TYR69      -0.2866
    133  N         44.7040   27.3470   44.7150 N.3   106  PHE106     -0.1241
    134  CA        45.2970   26.8890   43.4650 C.3   106  PHE106      0.1605
    135  C         46.6140   26.1540   43.7180 C.2   106  PHE106      0.2264
    136  O         46.8030   25.0140   43.3120 O.2   106  PHE106     -0.2867
    137  CB        45.5600   28.0650   42.5290 C.3   106  PHE106      0.0534
    138  CG        44.3270   28.7220   41.9360 C.ar  106  PHE106     -0.0203
    139  CD1       43.0560   28.2830   42.2440 C.ar  106  PHE106     -0.0042
    140  CD2       44.4600   29.7920   41.0640 C.ar  106  PHE106     -0.0042
    141  CE1       41.9300   28.8870   41.7100 C.ar  106  PHE106     -0.0003
    142  CE2       43.3470   30.4000   40.5230 C.ar  106  PHE106     -0.0003
    143  CZ        42.0750   29.9520   40.8410 C.ar  106  PHE106     -0.0000
@<TRIPOS>BOND
     1    71    70    2
     2    68    67    2
     3    50    51    1
     4    50    47    1
     5    70    72   am
     6    70    69    1
     7    49    48    2
     8    51    53    1
     9    51    52    1
    10    48    47    1
    11    67    66    1
    12    96    94    1
    13    47    46    1
    14    69    66    1
    15    92    91    2
    16    66    65    1
    17    93    94    1
    18    93    90    1
    19    94    95    1
    20    29    28    1
    21    46    41   am
    22    91    90    1
    23    65    56   am
    24    89    90    1
    25    89    87   am
    26    27    28    2
    27    27    26    1
    28    28    30    1
    29    41    42    2
    30    41    40    1
    31    86    87    1
    32    86    85    1
    33     8     6    1
    34    87    88    2
    35    26    25    1
    36    54    55    1
    37    39    45    1
    38    39    40    1
    39    56    57    2
    40    56    55    1
    41    45    44    1
    42    40    43    1
    43    55    58    1
    44     6     7    1
    45     6     5    1
    46    25    24    1
    47    43    44    1
    48    58    59    1
    49     5     2    1
    50    24    21    1
    51    73    74    1
    52    59    61   ar
    53    59    60   ar
    54    61    63   ar
    55     3     4    2
    56     3     2    1
    57    60    62   ar
    58    75    74    1
    59    75    76    2
    60     2     1    1
    61    74    77    1
    62    21    22    1
    63    21    20    1
    64    63    64   ar
    65   125   126    1
    66   125   122    1
    67   128   130   ar
    68   128   126   ar
    69   124   123    2
    70    62    64   ar
    71   130   131   ar
    72   126   127   ar
    73    22    23    2
    74   123   122    1
    75    20    11   am
    76   131   132    1
    77   131   129   ar
    78   127   129   ar
    79    38    36    1
    80   122   121    1
    81    77    78    1
    82    80    78   ar
    83    80    82   ar
    84    78    79   ar
    85    37    35    1
    86    82    83   ar
    87   102   101    1
    88   120   118   ar
    89    11    12    2
    90    11    10    1
    91    79    81   ar
    92    35    36    1
    93    35    32    1
    94    16    18   ar
    95    16    14   ar
    96    83    81   ar
    97    83    84    1
    98   119   118   ar
    99    18    19   ar
   100     9    10    1
   101   101    98    1
   102   142   143   ar
   103   142   140   ar
   104    13    10    1
   105    13    14    1
   106   118   117    1
   107   143   141   ar
   108    14    15   ar
   109    33    32    1
   110    33    34    2
   111   140   138   ar
   112    32    31    1
   113    19    17   ar
   114   141   139   ar
   115    15    17   ar
   116    98    99    1
   117    98    97    1
   118   117   114    1
   119   138   139   ar
   120   138   137    1
   121   100    99    2
   122   111   109   ar
   123   111   112   ar
   124   109   108   ar
   125   137   134    1
   126   114   113    1
   127   114   115    1
   128   136   135    2
   129   112   110   ar
   130   113   105   am
   131   134   135    1
   132   134   133    1
   133   108   107    1
   134   108   110   ar
   135   116   115    2
   136   107   104    1
   137   105   106    2
   138   105   104    1
   139   104   103    1
