@<TRIPOS>MOLECULE
tmp/1fxjA00.pdb
 88 83 0 0 0
SMALL
GASTEIGER

@<TRIPOS>ATOM
      1  N         90.4570   14.2720  176.5890 N.3     9  LEU9       -0.1231
      2  CA        89.3290   13.3500  176.7870 C.3     9  LEU9        0.1693
      3  C         88.0920   13.7340  175.9400 C.2     9  LEU9        0.2592
      4  O         87.4580   14.7720  176.1490 O.2     9  LEU9       -0.2718
      5  CB        88.9870   13.3110  178.2740 C.3     9  LEU9        0.0284
      6  CG        90.1930   12.8320  179.1090 C.3     9  LEU9        0.0019
      7  CD1       90.1920   13.5060  180.4500 C.3     9  LEU9        0.0001
      8  CD2       90.1380   11.3330  179.2790 C.3     9  LEU9        0.0001
      9  N         87.7720   12.8720  174.9860 N.am   10  ALA10      -0.1966
     10  CA        86.6770   13.0690  174.0470 C.3    10  ALA10       0.1728
     11  C         85.9040   11.7660  173.9400 C.2    10  ALA10       0.2616
     12  O         85.4440   11.4230  172.8590 O.2    10  ALA10      -0.2715
     13  CB        87.2770   13.4380  172.6510 C.3    10  ALA10       0.0334
     14  N         85.7570   11.0560  175.0630 N.am   11  ALA11      -0.1963
     15  CA        85.1060    9.7330  175.1040 C.3    11  ALA11       0.1728
     16  C         83.5710    9.6310  175.2510 C.2    11  ALA11       0.2616
     17  O         82.9740    8.5640  175.0110 O.2    11  ALA11      -0.2715
     18  CB        85.7720    8.9070  176.1930 C.3    11  ALA11       0.0334
     19  N         82.9350   10.7300  175.6460 N.am   12  GLY12      -0.1955
     20  CA        81.4860   10.7460  175.7930 C.3    12  GLY12       0.1869
     21  C         80.7330   10.4830  174.4990 C.2    12  GLY12       0.2309
     22  O         81.2500   10.6590  173.3770 O.2    12  GLY12      -0.2863
     23  N         80.2150   14.8170  168.8310 N.3    23  LYS23      -0.1245
     24  CA        80.1390   16.0630  169.5500 C.3    23  LYS23       0.1561
     25  C         81.3640   16.9610  169.5230 C.2    23  LYS23       0.2260
     26  O         81.2280   18.1530  169.2860 O.2    23  LYS23      -0.2867
     27  CB        79.7330   15.8080  171.0060 C.3    23  LYS23       0.0271
     28  CG        79.8750   17.0400  171.8930 C.3    23  LYS23       0.0035
     29  CD        79.2240   16.8140  173.2410 C.3    23  LYS23       0.0206
     30  CE        80.1170   15.9920  174.1720 C.3    23  LYS23       0.1093
     31  NZ        79.6810   16.2800  175.5730 N.3    23  LYS23      -0.1314
     32  N         83.8370    6.0820  182.3250 N.3    79  GLY79      -0.1210
     33  CA        84.2870    7.2980  182.9980 C.3    79  GLY79       0.1956
     34  C         85.7110    7.7660  182.7430 C.2    79  GLY79       0.2612
     35  O         86.5510    7.0440  182.1930 O.2    79  GLY79      -0.2717
     36  N         85.9770    8.9950  183.1650 N.am   80  THR80      -0.1952
     37  CA        87.2810    9.6310  182.9950 C.3    80  THR80       0.1897
     38  C         88.4710    8.8850  183.6030 C.2    80  THR80       0.2313
     39  O         89.5600    8.8690  183.0040 O.2    80  THR80      -0.2863
     40  CB        87.2630   11.0490  183.5840 C.3    80  THR80       0.1794
     41  OG1       86.1730   11.7840  183.0060 O.3    80  THR80      -0.2208
     42  CG2       88.5830   11.7770  183.2980 C.3    80  THR80       0.0378
     43  N         89.7440   18.4720  178.1660 N.3   101  TYR101     -0.1241
     44  CA        88.5400   17.9050  177.5930 C.3   101  TYR101      0.1605
     45  C         88.2680   18.4660  176.2160 C.2   101  TYR101      0.2264
     46  O         88.4360   19.6680  175.9810 O.2   101  TYR101     -0.2867
     47  CB        87.3400   18.1570  178.5180 C.3   101  TYR101      0.0534
     48  CG        87.5360   17.5170  179.8740 C.ar  101  TYR101     -0.0201
     49  CD1       88.3790   18.1060  180.8100 C.ar  101  TYR101     -0.0009
     50  CD2       86.9520   16.2820  180.1890 C.ar  101  TYR101     -0.0009
     51  CE1       88.6530   17.4880  182.0250 C.ar  101  TYR101      0.0417
     52  CE2       87.2190   15.6450  181.4140 C.ar  101  TYR101      0.0417
     53  CZ        88.0770   16.2620  182.3220 C.ar  101  TYR101      0.1957
     54  OH        88.4000   15.6730  183.5240 O.3   101  TYR101     -0.2866
     55  N         85.5160   18.8460  174.9050 N.3   103  ASP103     -0.1225
     56  CA        84.3390   19.6860  174.8840 C.3   103  ASP103      0.1805
     57  C         84.3700   20.8750  175.8350 C.2   103  ASP103      0.2597
     58  O         83.3320   21.3410  176.2610 O.2   103  ASP103     -0.2718
     59  CB        83.0700   18.8890  175.0940 C.3   103  ASP103      0.1424
     60  CG        83.1500   17.9330  176.2970 C.2   103  ASP103      0.3668
     61  OD1       84.0360   18.0930  177.1440 O.co2 103  ASP103     -0.2456
     62  OD2       82.3040   17.0250  176.3750 O.co2 103  ASP103     -0.2456
     63  N         85.5680   21.3640  176.1650 N.am  104  VAL104     -0.1980
     64  CA        85.7290   22.5760  176.9820 C.3   104  VAL104      0.1595
     65  C         86.6760   23.3620  176.0750 C.2   104  VAL104      0.2287
     66  O         87.8580   23.5410  176.3690 O.2   104  VAL104     -0.2864
     67  CB        86.4050   22.2720  178.3380 C.3   104  VAL104      0.0276
     68  CG1       86.6060   23.5710  179.1150 C.3   104  VAL104      0.0022
     69  CG2       85.5030   21.2980  179.1480 C.3   104  VAL104      0.0022
     70  N         81.8980   23.4600  179.8690 N.3   223  GLY223     -0.1210
     71  CA        81.8420   22.3170  178.9950 C.3   223  GLY223      0.1956
     72  C         80.5580   22.3350  178.1760 C.2   223  GLY223      0.2612
     73  O         79.5780   23.0130  178.5120 O.2   223  GLY223     -0.2717
     74  N         80.5580   21.5750  177.0880 N.am  224  VAL224     -0.1965
     75  CA        79.4180   21.5060  176.1840 C.3   224  VAL224      0.1727
     76  C         78.8310   20.1020  176.0480 C.2   224  VAL224      0.2616
     77  O         79.5070   19.1760  175.6020 O.2   224  VAL224     -0.2715
     78  CB        79.8390   21.9780  174.7360 C.3   224  VAL224      0.0290
     79  CG1       78.7140   21.7090  173.7250 C.3   224  VAL224      0.0023
     80  CG2       80.2060   23.4300  174.7560 C.3   224  VAL224      0.0023
     81  N         77.5650   19.9530  176.3900 N.am  225  ASN225     -0.1972
     82  CA        76.8700   18.6850  176.2580 C.3   225  ASN225      0.1688
     83  C         75.7200   18.7760  175.2500 C.2   225  ASN225      0.2292
     84  O         75.2050   17.7530  174.7800 O.2   225  ASN225     -0.2864
     85  CB        76.2930   18.2220  177.6200 C.3   225  ASN225      0.1181
     86  CG        77.3710   17.7840  178.5720 C.2   225  ASN225      0.2629
     87  OD1       78.2240   16.9980  178.1920 O.2   225  ASN225     -0.2716
     88  ND2       77.3530   18.2940  179.8100 N.am  225  ASN225     -0.0877
@<TRIPOS>BOND
     1    23    24    1
     2    26    25    2
     3    25    24    1
     4    24    27    1
     5    27    28    1
     6    28    29    1
     7    13    10    1
     8    12    11    2
     9    29    30    1
    10    22    21    2
    11    79    78    1
    12    11    10    1
    13    11    14   am
    14    10     9    1
    15    30    31    1
    16    21    20    1
    17    78    80    1
    18    78    75    1
    19    84    83    2
    20    56    55    1
    21    56    59    1
    22    56    57    1
    23     9     3   am
    24    17    16    2
    25    14    15    1
    26    59    60    1
    27    15    16    1
    28    15    18    1
    29    83    82    1
    30    16    19   am
    31    77    76    2
    32    19    20    1
    33    57    63   am
    34    57    58    2
    35     3     4    2
    36     3     2    1
    37    46    45    2
    38    76    75    1
    39    76    81   am
    40    65    66    2
    41    65    64    1
    42    63    64    1
    43    75    74    1
    44    45    44    1
    45    82    81    1
    46    82    85    1
    47    60    62   ar
    48    60    61   ar
    49     1     2    1
    50     2     5    1
    51    64    67    1
    52    74    72   am
    53    44    43    1
    54    44    47    1
    55    85    86    1
    56    72    73    2
    57    72    71    1
    58    87    86    2
    59     5     6    1
    60    67    68    1
    61    67    69    1
    62    47    48    1
    63    86    88   am
    64    71    70    1
    65     6     8    1
    66     6     7    1
    67    48    50   ar
    68    48    49   ar
    69    50    52   ar
    70    49    51   ar
    71    52    53   ar
    72    51    53   ar
    73    35    34    2
    74    53    54    1
    75    32    33    1
    76    34    33    1
    77    34    36   am
    78    37    36    1
    79    37    40    1
    80    37    38    1
    81    39    38    2
    82    41    40    1
    83    42    40    1
