@<TRIPOS>MOLECULE
tmp/1fxoE00.pdb
 126 117 0 0 0
SMALL
GASTEIGER

@<TRIPOS>ATOM
      1  N         37.3570   13.0520   20.1410 N.3     8  LEU8       -0.1245
      2  CA        37.0060   14.4490   19.8530 C.3     8  LEU8        0.1561
      3  C         37.4500   14.8170   18.4260 C.2     8  LEU8        0.2260
      4  O         38.6660   14.9380   18.1720 O.2     8  LEU8       -0.2867
      5  CB        37.6840   15.3640   20.8580 C.3     8  LEU8        0.0270
      6  CG        37.4390   16.8310   20.5940 C.3     8  LEU8        0.0019
      7  CD1       35.9870   17.0680   20.6990 C.3     8  LEU8        0.0001
      8  CD2       38.1320   17.7250   21.5840 C.3     8  LEU8        0.0001
      9  N         36.0570   17.3760   16.1980 N.3    10  GLY10      -0.1210
     10  CA        35.4570   18.5910   15.7050 C.3    10  GLY10       0.1956
     11  C         36.5220   19.5540   15.2510 C.2    10  GLY10       0.2612
     12  O         37.4350   19.1710   14.5210 O.2    10  GLY10      -0.2717
     13  N         36.3810   20.8130   15.6700 N.am   11  GLY11      -0.1942
     14  CA        37.4240   21.8090   15.4760 C.3    11  GLY11       0.2014
     15  C         37.0330   22.9040   14.5400 C.2    11  GLY11       0.2639
     16  O         36.1110   22.7360   13.7350 O.2    11  GLY11      -0.2714
     17  N         37.7740   24.0110   14.6540 N.am   12  SER12      -0.1949
     18  CA        37.6000   25.2430   13.8690 C.3    12  SER12       0.1924
     19  C         37.4580   25.0490   12.3510 C.2    12  SER12       0.2314
     20  O         36.5470   25.6280   11.7400 O.2    12  SER12      -0.2863
     21  CB        38.7730   26.2100   14.1670 C.3    12  SER12       0.2116
     22  OG        40.0410   25.5960   13.9250 O.3    12  SER12      -0.2180
     23  N         41.6700   26.7060    9.0750 N.3    15  ARG15      -0.1245
     24  CA        43.0810   26.5770    8.6440 C.3    15  ARG15       0.1563
     25  C         43.2720   25.8020    7.3270 C.2    15  ARG15       0.2260
     26  O         43.9770   26.2760    6.4270 O.2    15  ARG15      -0.2867
     27  CB        43.9480   25.8920    9.7090 C.3    15  ARG15       0.0307
     28  CG        45.2030   25.1670    9.1140 C.3    15  ARG15       0.0489
     29  CD        46.0850   24.4310   10.1530 C.3    15  ARG15       0.2205
     30  NE        46.1510   25.1860   11.4150 N.pl3  15  ARG15      -0.0865
     31  CZ        47.1990   25.2280   12.2520 C.cat  15  ARG15       0.5346
     32  NH1       48.3180   24.5480   11.9930 N.pl3  15  ARG15       0.1354
     33  NH2       47.1230   25.9700   13.3620 N.pl3  15  ARG15       0.1354
     34  N         38.0990   17.4260    8.2260 N.3    25  LYS25      -0.1231
     35  CA        39.3940   16.8140    8.2200 C.3    25  LYS25       0.1693
     36  C         39.3150   15.3650    8.6400 C.2    25  LYS25       0.2591
     37  O         39.8770   14.5510    7.9760 O.2    25  LYS25      -0.2718
     38  CB        40.3320   17.5600    9.1700 C.3    25  LYS25       0.0285
     39  CG        41.7350   16.9820    9.2440 C.3    25  LYS25       0.0035
     40  CD        42.6080   17.8370   10.2080 C.3    25  LYS25       0.0206
     41  CE        41.9860   18.0580   11.5770 C.3    25  LYS25       0.1093
     42  NZ        42.6000   19.2220   12.3590 N.3    25  LYS25      -0.1314
     43  N         38.5930   15.0440    9.7180 N.am   26  GLN26      -0.1979
     44  CA        38.6510   13.6900   10.2420 C.3    26  GLN26       0.1601
     45  C         37.9180   12.6440    9.4000 C.2    26  GLN26       0.2287
     46  O         37.9860   11.4520    9.7030 O.2    26  GLN26      -0.2864
     47  CB        38.2990   13.6370   11.7480 C.3    26  GLN26       0.0394
     48  CG        39.0330   14.6490   12.6100 C.3    26  GLN26       0.0908
     49  CD        38.3130   15.9820   12.6890 C.2    26  GLN26       0.2608
     50  OE1       37.4520   16.2960   11.8460 O.2    26  GLN26      -0.2717
     51  NE2       38.6320   16.7500   13.7000 N.am   26  GLN26      -0.0878
     52  N         29.4300   19.2740   19.6500 N.3    82  GLN82      -0.1245
     53  CA        30.1450   20.3660   20.3030 C.3    82  GLN82       0.1566
     54  C         29.7540   21.6120   19.5140 C.2    82  GLN82       0.2260
     55  O         30.2130   21.7950   18.4000 O.2    82  GLN82      -0.2867
     56  CB        31.6780   20.1580   20.2520 C.3    82  GLN82       0.0367
     57  CG        32.4710   21.2800   20.9300 C.3    82  GLN82       0.0905
     58  CD        33.9720   21.1120   21.0070 C.2    82  GLN82       0.2608
     59  OE1       34.6060   20.5770   20.0870 O.2    82  GLN82      -0.2717
     60  NE2       34.5740   21.7000   22.0810 N.am   82  GLN82      -0.0878
     61  N         33.9980   25.1660   19.2520 N.3    85  PRO85      -0.2116
     62  CA        35.2760   24.5400   19.6570 C.3    85  PRO85       0.1372
     63  C         35.9110   25.3160   20.7970 C.2    85  PRO85       0.2244
     64  O         36.8890   26.0350   20.6480 O.2    85  PRO85      -0.2868
     65  CB        36.1250   24.6400   18.3810 C.3    85  PRO85       0.0268
     66  CG        35.6020   25.8800   17.7030 C.3    85  PRO85       0.0207
     67  CD        34.1680   26.0030   18.0450 C.3    85  PRO85       0.0892
     68  N         37.3610   24.2380   23.4800 N.3    87  GLY87      -0.1210
     69  CA        38.4690   23.6190   24.1820 C.3    87  GLY87       0.1956
     70  C         38.3680   22.1090   24.2420 C.2    87  GLY87       0.2611
     71  O         37.2880   21.5610   24.3240 O.2    87  GLY87      -0.2717
     72  N         39.5120   21.4480   24.3270 N.am   88  LEU88      -0.1979
     73  CA        39.5220   19.9930   24.3670 C.3    88  LEU88       0.1596
     74  C         38.8330   19.5050   25.6040 C.2    88  LEU88       0.2287
     75  O         38.1970   18.4780   25.6040 O.2    88  LEU88      -0.2864
     76  CB        40.9310   19.3990   24.3000 C.3    88  LEU88       0.0297
     77  CG        41.8330   19.7800   23.1240 C.3    88  LEU88       0.0022
     78  CD1       43.2160   19.0800   23.1970 C.3    88  LEU88       0.0001
     79  CD2       41.2390   19.4740   21.8240 C.3    88  LEU88       0.0001
     80  N         42.1770   12.3580   20.2560 N.3   108  LEU108     -0.1231
     81  CA        41.8350   13.3450   19.2760 C.3   108  LEU108      0.1693
     82  C         41.6120   12.6840   17.9310 C.2   108  LEU108      0.2593
     83  O         42.3020   11.7390   17.5880 O.2   108  LEU108     -0.2718
     84  CB        42.9090   14.3930   19.2440 C.3   108  LEU108      0.0284
     85  CG        43.0990   15.1120   20.6250 C.3   108  LEU108      0.0019
     86  CD1       44.0770   16.2620   20.4850 C.3   108  LEU108      0.0001
     87  CD2       41.8740   15.5360   21.2640 C.3   108  LEU108      0.0001
     88  N         40.6400   13.1750   17.1710 N.am  109  GLY109     -0.1942
     89  CA        40.2500   12.5420   15.9180 C.3   109  GLY109      0.2014
     90  C         41.2880   12.5650   14.7890 C.2   109  GLY109      0.2638
     91  O         41.1180   11.8300   13.7960 O.2   109  GLY109     -0.2714
     92  N         42.2930   13.4150   14.9130 N.am  110  ASP110     -0.1971
     93  CA        43.3200   13.5360   13.9290 C.3   110  ASP110      0.1709
     94  C         44.6740   13.0240   14.4050 C.2   110  ASP110      0.2293
     95  O         45.6770   13.3790   13.8330 O.2   110  ASP110     -0.2864
     96  CB        43.4970   14.9620   13.4150 C.3   110  ASP110      0.1436
     97  CG        43.8710   15.9300   14.4720 C.2   110  ASP110      0.3671
     98  OD1       44.1070   15.5640   15.6650 O.co2 110  ASP110     -0.2456
     99  OD2       43.9600   17.1330   14.1760 O.co2 110  ASP110     -0.2456
    100  N         51.0050   24.8250   28.1280 N.3   161  GLU161     -0.1231
    101  CA        50.3380   24.7700   26.8370 C.3   161  GLU161      0.1699
    102  C         50.9840   25.7400   25.8470 C.2   161  GLU161      0.2592
    103  O         50.9540   26.9390   26.0740 O.2   161  GLU161     -0.2718
    104  CB        48.8350   25.0870   26.9810 C.3   161  GLU161      0.0402
    105  CG        48.0050   24.9910   25.6940 C.3   161  GLU161      0.1161
    106  CD        48.0290   23.6280   25.0210 C.2   161  GLU161      0.3649
    107  OE1       48.3080   22.5920   25.6660 O.co2 161  GLU161     -0.2457
    108  OE2       47.7800   23.5820   23.8150 O.co2 161  GLU161     -0.2457
    109  N         51.5150   25.2220   24.7400 N.am  162  LYS162     -0.1980
    110  CA        52.1350   26.0310   23.7060 C.3   162  LYS162      0.1596
    111  C         53.0420   27.1420   24.2330 C.2   162  LYS162      0.2287
    112  O         52.7990   28.3520   23.9540 O.2   162  LYS162     -0.2864
    113  CB        51.0040   26.6290   22.8720 C.3   162  LYS162      0.0298
    114  CG        50.2220   25.6110   22.1160 C.3   162  LYS162      0.0038
    115  CD        49.0830   26.2040   21.2190 C.3   162  LYS162      0.0206
    116  CE        48.3630   25.0770   20.4810 C.3   162  LYS162      0.1093
    117  NZ        47.5990   25.5630   19.2480 N.3   162  LYS162     -0.1314
    118  N         40.2220   28.9110   25.7030 N.3   196  GLU196     -0.1245
    119  CA        39.7050   27.5610   25.7200 C.3   196  GLU196      0.1567
    120  C         39.5770   26.9160   27.1310 C.2   196  GLU196      0.2260
    121  O         40.0450   27.4450   28.1660 O.2   196  GLU196     -0.2867
    122  CB        40.5760   26.7070   24.8000 C.3   196  GLU196      0.0388
    123  CG        40.9360   27.3740   23.4580 C.3   196  GLU196      0.1160
    124  CD        39.7650   27.4360   22.4590 C.2   196  GLU196      0.3649
    125  OE1       39.0260   26.4330   22.3170 O.co2 196  GLU196     -0.2457
    126  OE2       39.5950   28.4870   21.7940 O.co2 196  GLU196     -0.2457
@<TRIPOS>BOND
     1    26    25    2
     2    25    24    1
     3    37    36    2
     4    35    34    1
     5    35    36    1
     6    35    38    1
     7    36    43   am
     8    24    23    1
     9    24    27    1
    10    28    27    1
    11    28    29    1
    12    38    39    1
    13    39    40    1
    14    45    46    2
    15    45    44    1
    16    43    44    1
    17    29    30    1
    18    40    41    1
    19    44    47    1
    20    30    31    2
    21    41    42    1
    22    20    19    2
    23    47    48    1
    24    50    49    2
    25    32    31    1
    26    31    33    1
    27    19    18    1
    28    48    49    1
    29    49    51   am
    30    96    93    1
    31    96    97    1
    32    16    15    2
    33    91    90    2
    34    95    94    2
    35    18    21    1
    36    18    17    1
    37    22    21    1
    38    93    94    1
    39    93    92    1
    40    99    97   ar
    41    97    98   ar
    42    12    11    2
    43    15    17   am
    44    15    14    1
    45    90    92   am
    46    90    89    1
    47    11    13   am
    48    11    10    1
    49    14    13    1
    50    10     9    1
    51    89    88    1
    52    88    82   am
    53    83    82    2
    54    66    67    1
    55    66    65    1
    56    82    81    1
    57    67    61    1
    58     4     3    2
    59    65    62    1
    60    55    54    2
    61     3     2    1
    62    84    81    1
    63    84    85    1
    64   117   116    1
    65    61    62    1
    66    81    80    1
    67    54    53    1
    68    52    53    1
    69    62    63    1
    70     2     1    1
    71     2     5    1
    72    59    58    2
    73    56    53    1
    74    56    57    1
    75   116   115    1
    76    86    85    1
    77     6     7    1
    78     6     5    1
    79     6     8    1
    80    85    87    1
    81    64    63    2
    82    57    58    1
    83    58    60   am
    84   115   114    1
    85   126   124   ar
    86    79    77    1
    87   114   113    1
    88   125   124   ar
    89   124   123    1
    90   113   110    1
    91    77    78    1
    92    77    76    1
    93   123   122    1
    94    68    69    1
    95   110   111    1
    96   110   109    1
    97   108   106   ar
    98   112   111    2
    99    69    70    1
   100    70    71    2
   101    70    72   am
   102    76    73    1
   103    72    73    1
   104    73    74    1
   105   109   102   am
   106   122   119    1
   107   106   107   ar
   108   106   105    1
   109    75    74    2
   110   105   104    1
   111   118   119    1
   112   119   120    1
   113   102   103    2
   114   102   101    1
   115   101   104    1
   116   101   100    1
   117   120   121    2
