@<TRIPOS>MOLECULE
tmp/1fxoE01.pdb
 142 142 0 0 0
SMALL
GASTEIGER

@<TRIPOS>ATOM
      1  N         42.2210   -0.9160   20.4640 N.3    45  LEU45      -0.1245
      2  CA        43.4240   -1.6600   20.9140 C.3    45  LEU45       0.1561
      3  C         43.6600   -1.5380   22.3980 C.2    45  LEU45       0.2260
      4  O         44.3570   -2.3850   22.9710 O.2    45  LEU45      -0.2867
      5  CB        44.6680   -1.2120   20.1600 C.3    45  LEU45       0.0270
      6  CG        44.6460   -1.6790   18.7130 C.3    45  LEU45       0.0019
      7  CD1       45.6430   -0.8080   17.9360 C.3    45  LEU45       0.0001
      8  CD2       44.9700   -3.1730   18.6520 C.3    45  LEU45       0.0001
      9  N         48.7110    7.0620   15.7300 N.3   113  TYR113     -0.1227
     10  CA        49.7740    6.3690   16.4520 C.3   113  TYR113      0.1736
     11  C         50.0790    5.0490   15.7890 C.2   113  TYR113      0.2595
     12  O         49.1820    4.3450   15.3370 O.2   113  TYR113     -0.2718
     13  CB        49.3390    6.0340   17.8860 C.3   113  TYR113      0.0548
     14  CG        48.9860    7.2330   18.7320 C.ar  113  TYR113     -0.0200
     15  CD1       47.7140    7.7270   18.7770 C.ar  113  TYR113     -0.0009
     16  CD2       49.9500    7.8610   19.4740 C.ar  113  TYR113     -0.0009
     17  CE1       47.4100    8.8440   19.5160 C.ar  113  TYR113      0.0417
     18  CE2       49.6690    8.9480   20.2270 C.ar  113  TYR113      0.0417
     19  CZ        48.3740    9.4710   20.2160 C.ar  113  TYR113      0.1957
     20  OH        48.0710   10.5640   21.0060 O.3   113  TYR113     -0.2866
     21  N         51.3440    4.6510   15.8190 N.am  114  TYR114     -0.1962
     22  CA        51.7140    3.3760   15.2720 C.3   114  TYR114      0.1771
     23  C         53.0470    2.8970   15.8440 C.2   114  TYR114      0.2620
     24  O         54.0270    3.6330   15.8710 O.2   114  TYR114     -0.2715
     25  CB        51.8180    3.3910   13.7600 C.3   114  TYR114      0.0574
     26  CG        51.9000    2.0210   13.1980 C.ar  114  TYR114     -0.0198
     27  CD1       50.7360    1.2690   13.0040 C.ar  114  TYR114     -0.0009
     28  CD2       53.0780    1.4960   12.8360 C.ar  114  TYR114     -0.0009
     29  CE1       50.7880   -0.0120   12.4750 C.ar  114  TYR114      0.0417
     30  CE2       53.1790    0.1260   12.2630 C.ar  114  TYR114      0.0417
     31  CZ        52.0350   -0.6040   12.1310 C.ar  114  TYR114      0.1957
     32  OH        52.0170   -1.8750   11.5560 O.3   114  TYR114     -0.2866
     33  N         53.0940    1.6340   16.2540 N.am  115  GLY115     -0.1940
     34  CA        54.3800    1.0870   16.6090 C.3   115  GLY115      0.2014
     35  C         54.3160   -0.2390   17.3270 C.2   115  GLY115      0.2639
     36  O         53.2720   -0.6720   17.7810 O.2   115  GLY115     -0.2714
     37  N         55.4620   -0.8760   17.4110 N.am  116  HIS116     -0.1959
     38  CA        55.5930   -2.1320   18.1130 C.3   116  HIS116      0.1787
     39  C         55.3220   -2.0470   19.5840 C.2   116  HIS116      0.2620
     40  O         55.7910   -1.1070   20.2810 O.2   116  HIS116     -0.2715
     41  CB        56.9700   -2.7290   17.8420 C.3   116  HIS116      0.0785
     42  CG        57.1910   -4.0360   18.5180 C.ar  116  HIS116      0.0821
     43  ND1       56.4640   -5.1600   18.1750 N.ar  116  HIS116     -0.2267
     44  CD2       57.9910   -4.3960   19.5580 C.ar  116  HIS116      0.1154
     45  CE1       56.7610   -6.1310   19.0300 C.ar  116  HIS116      0.1986
     46  NE2       57.7390   -5.7200   19.8270 N.ar  116  HIS116     -0.2212
     47  N         54.5760   -3.0200   20.0710 N.am  117  ASP117     -0.1957
     48  CA        54.2200   -3.1560   21.4760 C.3   117  ASP117      0.1840
     49  C         53.2680   -2.0260   21.9140 C.2   117  ASP117      0.2622
     50  O         53.1670   -1.7460   23.1120 O.2   117  ASP117     -0.2715
     51  CB        55.4620   -3.2100   22.4020 C.3   117  ASP117      0.1450
     52  CG        56.2220   -4.5090   22.3610 C.2   117  ASP117      0.3671
     53  OD1       55.6420   -5.5480   21.9940 O.co2 117  ASP117     -0.2456
     54  OD2       57.4600   -4.5680   22.7130 O.co2 117  ASP117     -0.2456
     55  N         52.5450   -1.4090   20.9820 N.am  118  PHE118     -0.1960
     56  CA        51.6200   -0.3300   21.3500 C.3   118  PHE118      0.1771
     57  C         50.5430   -0.8850   22.2930 C.2   118  PHE118      0.2619
     58  O         50.0610   -0.1970   23.2130 O.2   118  PHE118     -0.2715
     59  CB        50.9870    0.2490   20.0840 C.3   118  PHE118      0.0574
     60  CG        50.1830    1.5110   20.2780 C.ar  118  PHE118     -0.0200
     61  CD1       50.5480    2.4980   21.1110 C.ar  118  PHE118     -0.0042
     62  CD2       49.0210    1.6860   19.5610 C.ar  118  PHE118     -0.0042
     63  CE1       49.7800    3.6330   21.2520 C.ar  118  PHE118     -0.0003
     64  CE2       48.2870    2.8290   19.6700 C.ar  118  PHE118     -0.0003
     65  CZ        48.6720    3.7970   20.5210 C.ar  118  PHE118     -0.0000
     66  N         50.1560   -2.1350   22.1020 N.am  119  HIS119     -0.1977
     67  CA        49.0830   -2.6380   22.9510 C.3   119  HIS119      0.1611
     68  C         49.5210   -2.6680   24.4360 C.2   119  HIS119      0.2287
     69  O         48.6980   -2.4780   25.3740 O.2   119  HIS119     -0.2864
     70  CB        48.5840   -3.9910   22.4190 C.3   119  HIS119      0.0486
     71  CG        49.4300   -5.1230   22.8490 C.3   119  HIS119      0.0939
     72  ND1       49.0800   -5.9170   23.9320 N.3   119  HIS119     -0.1997
     73  CD2       50.6910   -5.4930   22.4940 C.3   119  HIS119      0.1077
     74  CE1       50.0310   -6.8290   24.1100 C.3   119  HIS119      0.1782
     75  NE2       50.9670   -6.6540   23.1810 N.3   119  HIS119     -0.1983
     76  N         47.2790   -4.2100    6.7050 N.3   249  LYS249     -0.1231
     77  CA        46.7690   -2.8640    6.7710 C.3   249  LYS249      0.1693
     78  C         46.7620   -2.3270    8.1860 C.2   249  LYS249      0.2592
     79  O         46.6350   -3.0570    9.1700 O.2   249  LYS249     -0.2718
     80  CB        45.4140   -2.7390    6.1120 C.3   249  LYS249      0.0285
     81  CG        45.4960   -3.1660    4.6560 C.3   249  LYS249      0.0035
     82  CD        44.2960   -2.6260    3.7800 C.3   249  LYS249      0.0206
     83  CE        44.4480   -3.0270    2.3080 C.3   249  LYS249      0.1093
     84  NZ        45.8970   -3.1690    1.7770 N.3   249  LYS249     -0.1314
     85  N         47.0350   -1.0400    8.2930 N.am  250  VAL250     -0.1966
     86  CA        47.0610   -0.3370    9.5430 C.3   250  VAL250      0.1727
     87  C         45.6810    0.1610    9.9370 C.2   250  VAL250      0.2616
     88  O         44.9800    0.7450    9.1270 O.2   250  VAL250     -0.2715
     89  CB        48.0210    0.8500    9.5100 C.3   250  VAL250      0.0290
     90  CG1       48.0090    1.5730   10.8480 C.3   250  VAL250      0.0023
     91  CG2       49.4520    0.3580    9.0760 C.3   250  VAL250      0.0023
     92  N         45.2830   -0.1150   11.1820 N.am  251  ALA251     -0.1963
     93  CA        44.0780    0.4340   11.7570 C.3   251  ALA251      0.1728
     94  C         42.7950    0.1130   11.0230 C.2   251  ALA251      0.2616
     95  O         41.9820    0.9870   10.8020 O.2   251  ALA251     -0.2715
     96  CB        44.2180    1.9690   11.8730 C.3   251  ALA251      0.0334
     97  N         42.6530   -1.1490   10.5840 N.am  252  CYS252     -0.1968
     98  CA        41.3730   -1.6460   10.0780 C.3   252  CYS252      0.1712
     99  C         40.5340   -2.0560   11.2770 C.2   252  CYS252      0.2296
    100  O         40.8760   -3.0160   11.9460 O.2   252  CYS252     -0.2864
    101  CB        41.5760   -2.8770    9.2050 C.3   252  CYS252      0.0983
    102  SG        42.4810   -2.5030    7.7100 S.3   252  CYS252     -0.0798
    103  N         39.4520   -5.6820   11.3700 N.3   255  GLU255     -0.1231
    104  CA        40.5070   -6.6350   11.7510 C.3   255  GLU255      0.1699
    105  C         40.7030   -6.6570   13.2530 C.2   255  GLU255      0.2592
    106  O         40.8050   -7.7280   13.8770 O.2   255  GLU255     -0.2718
    107  CB        41.8360   -6.2490   11.0930 C.3   255  GLU255      0.0402
    108  CG        43.0100   -7.1020   11.5960 C.3   255  GLU255      0.1161
    109  CD        44.3390   -6.8400   10.9090 C.2   255  GLU255      0.3649
    110  OE1       44.4650   -5.9180   10.1170 O.co2 255  GLU255     -0.2457
    111  OE2       45.2500   -7.6420   11.1610 O.co2 255  GLU255     -0.2457
    112  N         40.7680   -5.4700   13.8510 N.am  256  ILE256     -0.1980
    113  CA        40.9520   -5.4000   15.2990 C.3   256  ILE256      0.1595
    114  C         39.8050   -6.0700   16.0780 C.2   256  ILE256      0.2287
    115  O         40.0580   -6.8440   17.0130 O.2   256  ILE256     -0.2864
    116  CB        41.2540   -3.9620   15.6880 C.3   256  ILE256      0.0276
    117  CG1       42.6140   -3.6250   15.0610 C.3   256  ILE256      0.0022
    118  CG2       41.2830   -3.7970   17.1990 C.3   256  ILE256      0.0022
    119  CD1       42.9520   -2.2020   15.0490 C.3   256  ILE256      0.0001
    120  N         40.2670   -9.8260   15.8190 N.3   259  ARG259     -0.1245
    121  CA        41.3850  -10.3440   16.6340 C.3   259  ARG259      0.1563
    122  C         41.0330  -10.3210   18.1070 C.2   259  ARG259      0.2260
    123  O         41.4880  -11.1940   18.8690 O.2   259  ARG259     -0.2867
    124  CB        42.6960   -9.5640   16.3920 C.3   259  ARG259      0.0307
    125  CG        43.2550   -9.7780   15.0070 C.3   259  ARG259      0.0489
    126  CD        44.6740   -9.2550   14.7570 C.3   259  ARG259      0.2205
    127  NE        44.9690   -9.3390   13.3430 N.pl3 259  ARG259     -0.0865
    128  CZ        45.1320  -10.4850   12.6560 C.cat 259  ARG259      0.5346
    129  NH1       45.1300  -11.6690   13.2570 N.pl3 259  ARG259      0.1354
    130  NH2       45.3350  -10.4520   11.3620 N.pl3 259  ARG259      0.1354
    131  N         50.9340  -13.0280   13.1620 N.3   293  TYR293     -0.1241
    132  CA        51.4770  -12.9710   14.5200 C.3   293  TYR293      0.1605
    133  C         51.6890  -11.5310   14.9790 C.2   293  TYR293      0.2264
    134  O         51.9610  -11.2450   16.1880 O.2   293  TYR293     -0.2867
    135  CB        52.8380  -13.6780   14.5960 C.3   293  TYR293      0.0534
    136  CG        52.7620  -15.1250   14.1550 C.ar  293  TYR293     -0.0201
    137  CD1       53.2950  -15.5460   12.9390 C.ar  293  TYR293     -0.0009
    138  CD2       52.1210  -16.0660   14.9340 C.ar  293  TYR293     -0.0009
    139  CE1       53.1650  -16.8050   12.5380 C.ar  293  TYR293      0.0417
    140  CE2       52.0040  -17.3720   14.4890 C.ar  293  TYR293      0.0417
    141  CZ        52.5200  -17.7180   13.2810 C.ar  293  TYR293      0.1957
    142  OH        52.4500  -19.0080   12.7660 O.3   293  TYR293     -0.2866
@<TRIPOS>BOND
     1    84    83    1
     2    83    82    1
     3    82    81    1
     4    81    80    1
     5    80    77    1
     6    76    77    1
     7    77    78    1
     8   102   101    1
     9    78    85   am
    10    78    79    2
    11    85    86    1
    12    91    89    1
    13    88    87    2
    14   101    98    1
    15    89    86    1
    16    89    90    1
    17    86    87    1
    18    87    92   am
    19    98    97    1
    20    98    99    1
    21   110   109   ar
    22    97    94   am
    23    95    94    2
    24   109   111   ar
    25   109   108    1
    26    94    93    1
    27   107   108    1
    28   107   104    1
    29    92    93    1
    30    99   100    2
    31   130   128    1
    32   103   104    1
    33    32    31    1
    34   104   105    1
    35    93    96    1
    36    31    30   ar
    37    31    29   ar
    38    30    28   ar
    39    29    27   ar
    40   139   137   ar
    41   139   141   ar
    42   128   129    1
    43   128   127    2
    44   142   141    1
    45    28    26   ar
    46   137   136   ar
    47    27    26   ar
    48   131   132    1
    49    26    25    1
    50   105   112   am
    51   105   106    2
    52   141   140   ar
    53   127   126    1
    54    25    22    1
    55   112   113    1
    56   136   135    1
    57   136   138   ar
    58   140   138   ar
    59   132   135    1
    60   132   133    1
    61   126   125    1
    62   133   134    2
    63   125   124    1
    64   119   117    1
    65   117   116    1
    66    22    21    1
    67    22    23    1
    68   113   116    1
    69   113   114    1
    70    12    11    2
    71   116   118    1
    72     9    10    1
    73    11    21   am
    74    11    10    1
    75   120   121    1
    76    23    24    2
    77    23    33   am
    78   114   115    2
    79    33    34    1
    80   124   121    1
    81    10    13    1
    82    34    35    1
    83   121   122    1
    84    35    37   am
    85    35    36    2
    86    37    38    1
    87    41    38    1
    88    41    42    1
    89    13    14    1
    90     7     6    1
    91   122   123    2
    92    38    39    1
    93    43    42   ar
    94    43    45   ar
    95    42    44   ar
    96     8     6    1
    97     6     5    1
    98    14    15   ar
    99    14    16   ar
   100    15    17   ar
   101    45    46   ar
   102    16    18   ar
   103    17    19   ar
   104    44    46   ar
   105    62    64   ar
   106    62    60   ar
   107    39    47   am
   108    39    40    2
   109    64    65   ar
   110    47    48    1
   111    59    60    1
   112    59    56    1
   113     5     2    1
   114    19    18   ar
   115    19    20    1
   116    60    61   ar
   117     1     2    1
   118    65    63   ar
   119     2     3    1
   120    55    56    1
   121    55    49   am
   122    61    63   ar
   123    56    57    1
   124    48    49    1
   125    48    51    1
   126    49    50    2
   127    53    52   ar
   128    66    57   am
   129    66    67    1
   130    57    58    2
   131    52    51    1
   132    52    54   ar
   133     3     4    2
   134    70    71    1
   135    70    67    1
   136    73    71    1
   137    73    75    1
   138    71    72    1
   139    67    68    1
   140    75    74    1
   141    72    74    1
   142    68    69    2
