@<TRIPOS>MOLECULE
tmp/1fxuA00.pdb
 139 131 0 0 0
SMALL
GASTEIGER

@<TRIPOS>ATOM
      1  N         72.1960   37.9760   51.8490 N.3    30  SER30      -0.1217
      2  CA        71.6400   38.5090   53.0880 C.3    30  SER30       0.1889
      3  C         70.1090   38.4750   53.0840 C.2    30  SER30       0.2288
      4  O         69.4710   39.0740   52.2180 O.2    30  SER30      -0.2866
      5  CB        72.1390   39.9540   53.2850 C.3    30  SER30       0.2089
      6  OG        73.5620   40.0050   53.4170 O.3    30  SER30      -0.2183
      7  N         78.7260   37.3230   59.2700 N.3    58  VAL58      -0.1245
      8  CA        77.7180   38.3690   59.1090 C.3    58  VAL58       0.1561
      9  C         76.3040   37.9610   59.5030 C.2    58  VAL58       0.2260
     10  O         75.8330   36.8640   59.1780 O.2    58  VAL58      -0.2867
     11  CB        77.6740   38.8800   57.6230 C.3    58  VAL58       0.0252
     12  CG1       76.5880   39.9370   57.4460 C.3    58  VAL58       0.0019
     13  CG2       79.0430   39.4310   57.2200 C.3    58  VAL58       0.0019
     14  N         82.2740   37.6050   52.5340 N.3    83  HIS83      -0.1241
     15  CA        82.5140   38.9270   51.9710 C.3    83  HIS83       0.1621
     16  C         83.9300   39.3820   52.2710 C.2    83  HIS83       0.2264
     17  O         84.5360   39.0290   53.2940 O.2    83  HIS83      -0.2867
     18  CB        81.5410   39.9360   52.5740 C.3    83  HIS83       0.0745
     19  CG        80.1330   39.4370   52.6570 C.ar   83  HIS83       0.0817
     20  ND1       79.5420   38.5930   53.5330 N.ar   83  HIS83      -0.2268
     21  CD2       79.1430   39.8110   51.7650 C.ar   83  HIS83       0.1154
     22  CE1       78.2190   38.4780   53.1650 C.ar   83  HIS83       0.1986
     23  NE2       78.0060   39.2230   52.0940 N.ar   83  HIS83      -0.2212
     24  N         84.8610   42.3700   53.1050 N.3    85  TYR85      -0.1241
     25  CA        84.9220   43.2500   54.2720 C.3    85  TYR85       0.1605
     26  C         85.0520   42.4780   55.5800 C.2    85  TYR85       0.2264
     27  O         85.4360   43.0490   56.6080 O.2    85  TYR85      -0.2867
     28  CB        83.7010   44.1930   54.3260 C.3    85  TYR85       0.0534
     29  CG        82.3540   43.5030   54.4560 C.ar   85  TYR85      -0.0201
     30  CD1       81.9970   42.8260   55.6210 C.ar   85  TYR85      -0.0009
     31  CD2       81.4570   43.4990   53.3920 C.ar   85  TYR85      -0.0009
     32  CE1       80.7720   42.1520   55.7240 C.ar   85  TYR85       0.0417
     33  CE2       80.2260   42.8250   53.4800 C.ar   85  TYR85       0.0417
     34  CZ        79.8960   42.1510   54.6470 C.ar   85  TYR85       0.1957
     35  OH        78.7110   41.4430   54.6940 O.3    85  TYR85      -0.2866
     36  N         71.2610   40.9290   48.1490 N.3   113  ALA113     -0.1231
     37  CA        70.4090   42.0530   48.5100 C.3   113  ALA113      0.1694
     38  C         71.3050   43.2310   48.1060 C.2   113  ALA113      0.2592
     39  O         72.5120   43.2000   48.3270 O.2   113  ALA113     -0.2718
     40  CB        70.1450   42.0620   50.0180 C.3   113  ALA113      0.0304
     41  N         70.7310   44.2500   47.4940 N.am  114  ALA114     -0.1966
     42  CA        71.5100   45.3690   47.0100 C.3   114  ALA114      0.1728
     43  C         70.7230   46.6580   47.0830 C.2   114  ALA114      0.2616
     44  O         69.4950   46.6580   47.2000 O.2   114  ALA114     -0.2715
     45  CB        71.9110   45.1300   45.5590 C.3   114  ALA114      0.0334
     46  N         71.4470   47.7630   46.9720 N.am  115  GLY115     -0.1955
     47  CA        70.7970   49.0530   46.9900 C.3   115  GLY115      0.1869
     48  C         70.4380   49.4340   45.5750 C.2   115  GLY115      0.2309
     49  O         71.2140   49.1880   44.6450 O.2   115  GLY115     -0.2863
     50  N         82.8050   47.7040   54.6350 N.3   195  PRO195     -0.2116
     51  CA        81.4540   47.4110   55.1100 C.3   195  PRO195      0.1372
     52  C         80.5400   48.6180   55.3270 C.2   195  PRO195      0.2244
     53  O         79.3460   48.4410   55.5790 O.2   195  PRO195     -0.2868
     54  CB        81.7280   46.6590   56.4050 C.3   195  PRO195      0.0268
     55  CG        82.8710   47.4610   56.9620 C.3   195  PRO195      0.0207
     56  CD        83.7720   47.5990   55.7470 C.3   195  PRO195      0.0892
     57  N         78.2420   51.9150   54.4520 N.3   197  PHE197     -0.1227
     58  CA        77.2810   52.1950   53.3920 C.3   197  PHE197      0.1736
     59  C         77.7810   53.4670   52.7060 C.2   197  PHE197      0.2595
     60  O         78.4780   54.2690   53.3170 O.2   197  PHE197     -0.2718
     61  CB        75.8650   52.4040   53.9630 C.3   197  PHE197      0.0547
     62  CG        75.1450   51.1140   54.3140 C.ar  197  PHE197     -0.0202
     63  CD1       74.8060   50.1900   53.3160 C.ar  197  PHE197     -0.0042
     64  CD2       74.7910   50.8340   55.6270 C.ar  197  PHE197     -0.0042
     65  CE1       74.1210   49.0100   53.6250 C.ar  197  PHE197     -0.0003
     66  CE2       74.1080   49.6610   55.9500 C.ar  197  PHE197     -0.0003
     67  CZ        73.7690   48.7430   54.9440 C.ar  197  PHE197     -0.0000
     68  N         77.4160   53.6270   51.4410 N.am  198  GLU198     -0.1979
     69  CA        77.8470   54.7360   50.5960 C.3   198  GLU198      0.1602
     70  C         77.3950   56.1360   50.9800 C.2   198  GLU198      0.2287
     71  O         76.3940   56.3030   51.6480 O.2   198  GLU198     -0.2864
     72  CB        77.3710   54.4810   49.1480 C.3   198  GLU198      0.0415
     73  CG        77.6630   53.0990   48.6000 C.3   198  GLU198      0.1163
     74  CD        76.9030   51.9800   49.3400 C.2   198  GLU198      0.3649
     75  OE1       75.6750   52.1550   49.5730 O.co2 198  GLU198     -0.2457
     76  OE2       77.5370   50.9330   49.6680 O.co2 198  GLU198     -0.2457
     77  N         73.8200   48.3260   43.8260 N.3   214  VAL214     -0.1231
     78  CA        75.1280   48.2240   44.4940 C.3   214  VAL214      0.1692
     79  C         75.1480   47.2130   45.6140 C.2   214  VAL214      0.2593
     80  O         74.2020   47.1010   46.3900 O.2   214  VAL214     -0.2718
     81  CB        75.5520   49.5540   45.1200 C.3   214  VAL214      0.0266
     82  CG1       75.6580   50.5920   44.0750 C.3   214  VAL214      0.0020
     83  CG2       74.5050   50.0000   46.1100 C.3   214  VAL214      0.0020
     84  N         76.2540   46.5050   45.7150 N.am  215  GLY215     -0.1942
     85  CA        76.4160   45.5340   46.7760 C.3   215  GLY215      0.2014
     86  C         77.8770   45.3270   47.1190 C.2   215  GLY215      0.2638
     87  O         78.7510   45.9970   46.5600 O.2   215  GLY215     -0.2714
     88  N         78.1470   44.3670   48.0010 N.am  216  MET216     -0.1976
     89  CA        79.5060   44.0840   48.4550 C.3   216  MET216      0.1605
     90  C         79.8650   42.6140   48.2680 C.2   216  MET216      0.2287
     91  O         80.7020   42.0690   49.0030 O.2   216  MET216     -0.2864
     92  CB        79.6530   44.4590   49.9480 C.3   216  MET216      0.0413
     93  CG        79.3300   45.9160   50.2790 C.3   216  MET216      0.0598
     94  SD        79.0040   46.2390   52.0350 S.3   216  MET216     -0.1393
     95  CE        78.2780   47.8520   51.9250 C.3   216  MET216      0.0692
     96  N         66.7340   45.9900   48.1880 N.3   239  THR239     -0.1203
     97  CA        66.3310   46.2620   49.5600 C.3   239  THR239      0.1994
     98  C         66.1000   47.7380   49.8790 C.2   239  THR239      0.2617
     99  O         65.5540   48.0640   50.9200 O.2   239  THR239     -0.2717
    100  CB        67.3360   45.6590   50.5780 C.3   239  THR239      0.1784
    101  OG1       68.6670   46.0580   50.2460 O.3   239  THR239     -0.2211
    102  CG2       67.2600   44.1370   50.5650 C.3   239  THR239      0.0376
    103  N         66.5070   48.6460   49.0070 N.am  240  ASN240     -0.1974
    104  CA        66.2300   50.0430   49.2970 C.3   240  ASN240      0.1688
    105  C         66.6420   50.9860   48.2070 C.2   240  ASN240      0.2292
    106  O         67.5610   50.7100   47.4430 O.2   240  ASN240     -0.2864
    107  CB        66.8750   50.4810   50.6260 C.3   240  ASN240      0.1181
    108  CG        68.3740   50.6740   50.5230 C.2   240  ASN240      0.2629
    109  OD1       68.8550   51.6520   49.9400 O.2   240  ASN240     -0.2716
    110  ND2       69.1220   49.7420   51.0930 N.am  240  ASN240     -0.0877
    111  N         68.4750   54.0470   47.1580 N.3   242  VAL242     -0.1245
    112  CA        69.5680   54.8050   47.7500 C.3   242  VAL242      0.1561
    113  C         69.3170   56.3220   47.6540 C.2   242  VAL242      0.2260
    114  O         68.7670   56.8090   46.6640 O.2   242  VAL242     -0.2867
    115  CB        70.9140   54.4310   47.0790 C.3   242  VAL242      0.0252
    116  CG1       72.0560   55.0180   47.8440 C.3   242  VAL242      0.0019
    117  CG2       71.0560   52.9180   47.0360 C.3   242  VAL242      0.0019
    118  N         70.8030   54.0470   55.4720 N.3   249  ALA249     -0.1245
    119  CA        70.8890   52.5950   55.3550 C.3   249  ALA249      0.1562
    120  C         71.3550   51.8860   56.6220 C.2   249  ALA249      0.2260
    121  O         72.2210   52.3820   57.3450 O.2   249  ALA249     -0.2867
    122  CB        71.8030   52.2290   54.1820 C.3   249  ALA249      0.0290
    123  N         71.6540   47.5350   58.0810 N.3   251  HIS251     -0.1241
    124  CA        71.4980   46.1170   57.7750 C.3   251  HIS251      0.1621
    125  C         70.1550   45.4850   58.1880 C.2   251  HIS251      0.2264
    126  O         69.5970   44.6820   57.4440 O.2   251  HIS251     -0.2867
    127  CB        72.6750   45.3490   58.3920 C.3   251  HIS251      0.0745
    128  CG        72.7630   43.9150   57.9690 C.ar  251  HIS251      0.0817
    129  ND1       72.8840   43.5310   56.6510 N.ar  251  HIS251     -0.2268
    130  CD2       72.7940   42.7720   58.6950 C.ar  251  HIS251      0.1154
    131  CE1       72.9870   42.2150   56.5820 C.ar  251  HIS251      0.1986
    132  NE2       72.9370   41.7290   57.8090 N.ar  251  HIS251     -0.2212
    133  N         67.6520   45.8240   55.6430 N.3   254  VAL254     -0.1245
    134  CA        67.8090   44.9840   54.4500 C.3   254  VAL254      0.1561
    135  C         67.2980   43.5800   54.7440 C.2   254  VAL254      0.2260
    136  O         66.6600   42.9580   53.8880 O.2   254  VAL254     -0.2867
    137  CB        69.2940   44.9030   53.8970 C.3   254  VAL254      0.0252
    138  CG1       70.0200   46.2090   54.1360 C.3   254  VAL254      0.0019
    139  CG2       70.0450   43.7100   54.4800 C.3   254  VAL254      0.0019
@<TRIPOS>BOND
     1    77    78    1
     2    82    81    1
     3    78    81    1
     4    78    79    1
     5    49    48    2
     6    81    83    1
     7    45    42    1
     8    48    47    1
     9    79    84   am
    10    79    80    2
    11    84    85    1
    12    87    86    2
    13   114   113    2
    14    85    86    1
    15    46    47    1
    16    46    43   am
    17    42    43    1
    18    42    41    1
    19   117   115    1
    20   115   112    1
    21   115   116    1
    22    43    44    2
    23    86    88   am
    24   111   112    1
    25   106   105    2
    26    41    38   am
    27   113   112    1
    28    88    89    1
    29    38    39    2
    30    38    37    1
    31    36    37    1
    32    96    97    1
    33   105   104    1
    34    90    89    1
    35    90    91    2
    36    89    92    1
    37    37    40    1
    38    73    72    1
    39    73    74    1
    40   103   104    1
    41   103    98   am
    42    72    69    1
    43   104   107    1
    44    74    75   ar
    45    74    76   ar
    46    97    98    1
    47    97   100    1
    48    98    99    2
    49   109   108    2
    50    92    93    1
    51   101   100    1
    52    93    94    1
    53   108   107    1
    54   108   110   am
    55   102   100    1
    56    69    70    1
    57    69    68    1
    58    70    71    2
    59    68    59   am
    60    21    23   ar
    61    21    19   ar
    62     1     2    1
    63    95    94    1
    64    15    16    1
    65    15    14    1
    66    15    18    1
    67    23    22   ar
    68     4     3    2
    69    16    17    2
    70    18    19    1
    71    19    20   ar
    72    59    60    2
    73    59    58    1
    74     3     2    1
    75     2     5    1
    76    24    25    1
    77    22    20   ar
    78     5     6    1
    79    63    65   ar
    80    63    62   ar
    81    31    33   ar
    82    31    29   ar
    83    58    61    1
    84    58    57    1
    85    33    34   ar
    86    65    67   ar
    87   136   135    2
    88   137   138    1
    89   137   134    1
    90   137   139    1
    91    61    62    1
    92   122   119    1
    93    25    28    1
    94    25    26    1
    95    62    64   ar
    96    28    29    1
    97   134   135    1
    98   134   133    1
    99    29    30   ar
   100    50    51    1
   101    50    56    1
   102    34    35    1
   103    34    32   ar
   104    67    66   ar
   105    51    52    1
   106    51    54    1
   107    52    53    2
   108   119   118    1
   109   119   120    1
   110    26    27    2
   111    30    32   ar
   112    64    66   ar
   113    56    55    1
   114    54    55    1
   115   131   129   ar
   116   131   132   ar
   117   120   121    2
   118   129   128   ar
   119    13    11    1
   120   126   125    2
   121    12    11    1
   122    11     8    1
   123   124   123    1
   124   124   125    1
   125   124   127    1
   126   132   130   ar
   127   128   127    1
   128   128   130   ar
   129     8     7    1
   130     8     9    1
   131    10     9    2
