@<TRIPOS>MOLECULE
tmp/1fxyA00.pdb
 189 187 0 0 0
SMALL
GASTEIGER

@<TRIPOS>ATOM
      1  N          5.7280    9.8420   19.3310 N.3    26  PHE26      -0.1227
      2  CA         7.0920   10.2920   19.0960 C.3    26  PHE26       0.1736
      3  C          8.0970    9.1650   18.9300 C.2    26  PHE26       0.2595
      4  O          9.2410    9.3990   18.5330 O.2    26  PHE26      -0.2718
      5  CB         7.5420   11.2290   20.2230 C.3    26  PHE26       0.0547
      6  CG         7.6330   10.5710   21.5660 C.ar   26  PHE26      -0.0202
      7  CD1        6.5260   10.5140   22.4000 C.ar   26  PHE26      -0.0042
      8  CD2        8.8330   10.0190   22.0020 C.ar   26  PHE26      -0.0042
      9  CE1        6.6100    9.9160   23.6580 C.ar   26  PHE26      -0.0003
     10  CE2        8.9270    9.4200   23.2530 C.ar   26  PHE26      -0.0003
     11  CZ         7.8130    9.3690   24.0850 C.ar   26  PHE26      -0.0000
     12  N          7.6690    7.9440   19.2220 N.am   27  CYS27      -0.1970
     13  CA         8.5420    6.7840   19.1000 C.3    27  CYS27       0.1712
     14  C          7.7420    5.4900   19.0460 C.2    27  CYS27       0.2296
     15  O          6.5880    5.4390   19.4710 O.2    27  CYS27      -0.2864
     16  CB         9.5170    6.7200   20.2780 C.3    27  CYS27       0.0983
     17  SG        11.1010    7.5630   19.9730 S.3    27  CYS27      -0.0798
     18  N         17.2440    6.1990   23.3440 N.3    42  HIS42      -0.1241
     19  CA        17.2260    7.6100   22.9710 C.3    42  HIS42       0.1621
     20  C         15.8450    8.2560   22.9340 C.2    42  HIS42       0.2264
     21  O         15.7320    9.4790   22.9120 O.2    42  HIS42      -0.2867
     22  CB        17.9730    7.8250   21.6460 C.3    42  HIS42       0.0745
     23  CG        17.1270    7.6640   20.4170 C.ar   42  HIS42       0.0817
     24  ND1       17.3020    6.6520   19.4970 N.ar   42  HIS42      -0.2268
     25  CD2       16.1500    8.4600   19.9100 C.ar   42  HIS42       0.1154
     26  CE1       16.4560    6.8590   18.4840 C.ar   42  HIS42       0.1986
     27  NE2       15.7410    7.9440   18.6940 N.ar   42  HIS42      -0.2212
     28  N         14.6250   10.3650   26.3360 N.3    45  TYR45      -0.1227
     29  CA        14.8720   11.7730   26.6010 C.3    45  TYR45       0.1736
     30  C         14.2050   12.7020   25.5880 C.2    45  TYR45       0.2595
     31  O         14.4570   13.9060   25.5760 O.2    45  TYR45      -0.2718
     32  CB        16.3800   12.0510   26.6820 C.3    45  TYR45       0.0548
     33  CG        17.1710   11.7110   25.4440 C.ar   45  TYR45      -0.0200
     34  CD1       17.1860   12.5690   24.3450 C.ar   45  TYR45      -0.0009
     35  CD2       17.9320   10.5460   25.3820 C.ar   45  TYR45      -0.0009
     36  CE1       17.9440   12.2770   23.2090 C.ar   45  TYR45       0.0417
     37  CE2       18.6930   10.2430   24.2540 C.ar   45  TYR45       0.0417
     38  CZ        18.6950   11.1120   23.1710 C.ar   45  TYR45       0.1957
     39  OH        19.4490   10.8160   22.0560 O.3    45  TYR45      -0.2866
     40  N         13.3400   12.1410   24.7510 N.am   46  GLN46      -0.1979
     41  CA        12.6370   12.9290   23.7490 C.3    46  GLN46       0.1601
     42  C         11.2680   13.3490   24.2620 C.2    46  GLN46       0.2287
     43  O         10.4730   13.9220   23.5200 O.2    46  GLN46      -0.2864
     44  CB        12.4760   12.1300   22.4580 C.3    46  GLN46       0.0394
     45  CG        13.7850   11.6630   21.8580 C.3    46  GLN46       0.0908
     46  CD        13.7080   11.4740   20.3550 C.2    46  GLN46       0.2608
     47  OE1       14.7080   11.6190   19.6470 O.2    46  GLN46      -0.2717
     48  NE2       12.5210   11.1470   19.8590 N.am   46  GLN46      -0.0878
     49  N         25.5490    6.2310   20.1620 N.3    85  TYR85      -0.1241
     50  CA        24.1900    5.7070   20.0150 C.3    85  TYR85       0.1605
     51  C         24.2330    4.1870   20.0830 C.2    85  TYR85       0.2264
     52  O         23.3630    3.4910   19.5560 O.2    85  TYR85      -0.2867
     53  CB        23.5310    6.1850   18.7130 C.3    85  TYR85       0.0534
     54  CG        23.1080    7.6270   18.8040 C.ar   85  TYR85      -0.0201
     55  CD1       22.3160    8.0730   19.8650 C.ar   85  TYR85      -0.0009
     56  CD2       23.5870    8.5700   17.8960 C.ar   85  TYR85      -0.0009
     57  CE1       22.0230    9.4290   20.0250 C.ar   85  TYR85       0.0417
     58  CE2       23.2990    9.9260   18.0460 C.ar   85  TYR85       0.0417
     59  CZ        22.5220   10.3490   19.1140 C.ar   85  TYR85       0.1957
     60  OH        22.2710   11.6920   19.2790 O.3    85  TYR85      -0.2866
     61  N         31.6860    4.2170   12.6390 N.3   159  LYS159     -0.1245
     62  CA        30.5470    4.4920   13.5090 C.3   159  LYS159      0.1561
     63  C         29.6620    3.2750   13.7720 C.2   159  LYS159      0.2260
     64  O         28.6790    3.3590   14.5080 O.2   159  LYS159     -0.2867
     65  CB        29.7080    5.6210   12.9150 C.3   159  LYS159      0.0271
     66  CG        30.4320    6.9490   12.8820 C.3   159  LYS159      0.0035
     67  CD        29.6330    7.9840   12.1280 C.3   159  LYS159      0.0206
     68  CE        28.8710    8.8850   13.0850 C.3   159  LYS159      0.1093
     69  NZ        28.0580    9.9120   12.3710 N.3   159  LYS159     -0.1314
     70  N         13.3960    3.7920    3.8260 N.3   175  ASP175     -0.1225
     71  CA        14.1210    3.6760    5.0840 C.3   175  ASP175      0.1805
     72  C         13.1690    4.0540    6.2110 C.2   175  ASP175      0.2598
     73  O         12.0430    4.4770    5.9550 O.2   175  ASP175     -0.2718
     74  CB        15.2920    4.6740    5.0370 C.3   175  ASP175      0.1424
     75  CG        16.2550    4.5370    6.2000 C.2   175  ASP175      0.3668
     76  OD1       16.2910    3.4770    6.8600 O.co2 175  ASP175     -0.2456
     77  OD2       16.9950    5.5110    6.4410 O.co2 175  ASP175     -0.2456
     78  N         13.6050    3.8700    7.4540 N.am  176  SER176     -0.1938
     79  CA        12.7910    4.2960    8.5820 C.3   176  SER176      0.2055
     80  C         13.1950    5.7660    8.7080 C.2   176  SER176      0.2643
     81  O         14.0120    6.2580    7.9250 O.2   176  SER176     -0.2714
     82  CB        13.1220    3.5140    9.8670 C.3   176  SER176      0.2130
     83  OG        14.5050    3.2480   10.0070 O.3   176  SER176     -0.2179
     84  N         12.6450    6.4750    9.6770 N.am  177  CYS177     -0.1953
     85  CA        12.9720    7.8820    9.8170 C.3   177  CYS177      0.1843
     86  C         12.5950    8.3150   11.2230 C.2   177  CYS177      0.2625
     87  O         12.2740    7.4760   12.0690 O.2   177  CYS177     -0.2714
     88  CB        12.1850    8.6850    8.7700 C.3   177  CYS177      0.0997
     89  SG        12.7700   10.3740    8.3920 S.3   177  CYS177     -0.0797
     90  N         12.6400    9.6230   11.4630 N.am  178  GLN178     -0.1963
     91  CA        12.3030   10.1930   12.7620 C.3   178  GLN178      0.1733
     92  C         10.9140    9.7530   13.2330 C.2   178  GLN178      0.2616
     93  O          9.9480    9.7540   12.4620 O.2   178  GLN178     -0.2715
     94  CB        12.3770   11.7230   12.6940 C.3   178  GLN178      0.0408
     95  CG        13.7030   12.3040   13.1780 C.3   178  GLN178      0.0908
     96  CD        14.9030   11.7930   12.3870 C.2   178  GLN178      0.2608
     97  OE1       14.9630   11.9260   11.1610 O.2   178  GLN178     -0.2717
     98  NE2       15.8670   11.2090   13.0910 N.am  178  GLN178     -0.0878
     99  N         10.8280    9.3730   14.5060 N.am  179  GLY179     -0.1955
    100  CA         9.5690    8.9280   15.0740 C.3   179  GLY179      0.1869
    101  C          9.3960    7.4190   15.0510 C.2   179  GLY179      0.2309
    102  O          8.5660    6.8770   15.7790 O.2   179  GLY179     -0.2863
    103  N         11.9250    5.2900   15.7010 N.3   181  SER181     -0.1217
    104  CA        12.8380    4.7450   16.7030 C.3   181  SER181      0.1889
    105  C         12.1290    3.8850   17.7430 C.2   181  SER181      0.2288
    106  O         11.0590    4.2430   18.2170 O.2   181  SER181     -0.2866
    107  CB        13.5530    5.8830   17.4130 C.3   181  SER181      0.2089
    108  OG        14.5090    6.4690   16.5560 O.3   181  SER181     -0.2183
    109  N         14.5870    0.1070   15.6570 N.3   195  VAL195     -0.1231
    110  CA        14.9600    1.2790   14.8680 C.3   195  VAL195      0.1692
    111  C         15.8150    2.1870   15.7570 C.2   195  VAL195      0.2593
    112  O         15.4100    2.5160   16.8730 O.2   195  VAL195     -0.2718
    113  CB        13.7100    2.0450   14.3820 C.3   195  VAL195      0.0266
    114  CG1       14.1310    3.3020   13.6250 C.3   195  VAL195      0.0020
    115  CG2       12.8700    1.1440   13.4850 C.3   195  VAL195      0.0020
    116  N         16.9900    2.5850   15.2650 N.am  196  SER196     -0.1938
    117  CA        17.8980    3.4180   16.0590 C.3   196  SER196      0.2055
    118  C         18.3410    4.7650   15.4730 C.2   196  SER196      0.2643
    119  O         17.9620    5.8160   15.9730 O.2   196  SER196     -0.2714
    120  CB        19.1450    2.6050   16.4240 C.3   196  SER196      0.2130
    121  OG        19.9600    3.3080   17.3470 O.3   196  SER196     -0.2179
    122  N         19.1530    4.7450   14.4240 N.am  197  TRP197     -0.1959
    123  CA        19.6290    5.9980   13.8610 C.3   197  TRP197      0.1771
    124  C         20.1060    5.8840   12.4200 C.2   197  TRP197      0.2620
    125  O         20.1120    4.8040   11.8280 O.2   197  TRP197     -0.2715
    126  CB        20.7740    6.5450   14.7230 C.3   197  TRP197      0.0590
    127  CG        22.0280    5.6950   14.6870 C.ar  197  TRP197      0.0006
    128  CD1       22.2990    4.5970   15.4590 C.ar  197  TRP197      0.0946
    129  CD2       23.1750    5.8810   13.8410 C.ar  197  TRP197      0.0152
    130  NE1       23.5390    4.0900   15.1490 N.ar  197  TRP197     -0.2442
    131  CE2       24.0990    4.8550   14.1600 C.ar  197  TRP197      0.0810
    132  CE3       23.5120    6.8130   12.8460 C.ar  197  TRP197      0.0012
    133  CZ2       25.3450    4.7370   13.5160 C.ar  197  TRP197      0.0191
    134  CZ3       24.7500    6.6950   12.2070 C.ar  197  TRP197      0.0001
    135  CH2       25.6500    5.6610   12.5470 C.ar  197  TRP197      0.0015
    136  N         20.5160    7.0190   11.8700 N.am  198  GLY198     -0.1940
    137  CA        21.0100    7.0460   10.5130 C.3   198  GLY198      0.2014
    138  C         21.3400    8.4660   10.1100 C.2   198  GLY198      0.2639
    139  O         21.0180    9.4140   10.8260 O.2   198  GLY198     -0.2714
    140  N         21.9950    8.6140    8.9640 N.am  199  ASP199     -0.1957
    141  CA        22.3430    9.9320    8.4550 C.3   199  ASP199      0.1840
    142  C         21.1920   10.3520    7.5500 C.2   199  ASP199      0.2623
    143  O         21.0990    9.9210    6.3980 O.2   199  ASP199     -0.2715
    144  CB        23.6470    9.8740    7.6670 C.3   199  ASP199      0.1450
    145  CG        24.1170   11.2390    7.2360 C.2   199  ASP199      0.3671
    146  OD1       23.9330   12.2020    8.0110 O.co2 199  ASP199     -0.2456
    147  OD2       24.6630   11.3550    6.1220 O.co2 199  ASP199     -0.2456
    148  N         20.3080   11.1860    8.0860 N.am  200  GLY200     -0.1940
    149  CA        19.1500   11.6090    7.3250 C.3   200  GLY200      0.2014
    150  C         18.1560   10.4630    7.2550 C.2   200  GLY200      0.2639
    151  O         18.1180    9.6030    8.1440 O.2   200  GLY200     -0.2714
    152  N         17.3550   10.4520    6.1950 N.am  201  CYS201     -0.1967
    153  CA        16.3520    9.4180    5.9730 C.3   201  CYS201      0.1712
    154  C         16.2510    9.0890    4.4910 C.2   201  CYS201      0.2296
    155  O         16.0530    9.9790    3.6640 O.2   201  CYS201     -0.2864
    156  CB        14.9800    9.8910    6.4340 C.3   201  CYS201      0.0983
    157  SG        14.7780   10.1800    8.2130 S.3   201  CYS201     -0.0798
    158  N         23.1020    5.6880    2.5930 N.3   206  LYS206     -0.1245
    159  CA        22.9120    5.9750    4.0130 C.3   206  LYS206      0.1561
    160  C         21.7340    5.1560    4.5480 C.2   206  LYS206      0.2260
    161  O         20.6770    5.7010    4.8610 O.2   206  LYS206     -0.2867
    162  CB        22.6400    7.4650    4.2060 C.3   206  LYS206      0.0271
    163  CG        23.7380    8.1960    4.9460 C.3   206  LYS206      0.0035
    164  CD        25.0060    8.3080    4.1160 C.3   206  LYS206      0.0206
    165  CE        26.2200    8.5390    5.0010 C.3   206  LYS206      0.1093
    166  NZ        27.4900    8.0990    4.3580 N.3   206  LYS206     -0.1314
    167  N         19.3680    2.7600    7.0940 N.3   208  GLY208     -0.1210
    168  CA        19.0360    2.8490    8.5000 C.3   208  GLY208      0.1956
    169  C         19.9280    1.9310    9.3060 C.2   208  GLY208      0.2612
    170  O         20.2760    0.8460    8.8530 O.2   208  GLY208     -0.2717
    171  N         20.3200    2.3800   10.4930 N.am  209  VAL209     -0.1965
    172  CA        21.1620    1.5850   11.3850 C.3   209  VAL209      0.1727
    173  C         20.2760    1.1230   12.5470 C.2   209  VAL209      0.2616
    174  O         19.5760    1.9280   13.1700 O.2   209  VAL209     -0.2715
    175  CB        22.3410    2.4190   11.9190 C.3   209  VAL209      0.0290
    176  CG1       23.2220    1.5620   12.8090 C.3   209  VAL209      0.0023
    177  CG2       23.1410    2.9840   10.7500 C.3   209  VAL209      0.0023
    178  N         20.3110   -0.1720   12.8350 N.am  210  TYR210     -0.1974
    179  CA        19.4690   -0.7430   13.8800 C.3   210  TYR210      0.1639
    180  C         20.2120   -1.4190   15.0140 C.2   210  TYR210      0.2290
    181  O         21.3350   -1.8920   14.8530 O.2   210  TYR210     -0.2864
    182  CB        18.5030   -1.7550   13.2570 C.3   210  TYR210      0.0560
    183  CG        17.6710   -1.1720   12.1410 C.ar  210  TYR210     -0.0198
    184  CD1       18.2020   -0.9960   10.8560 C.ar  210  TYR210     -0.0009
    185  CD2       16.3720   -0.7430   12.3810 C.ar  210  TYR210     -0.0009
    186  CE1       17.4470   -0.3950    9.8430 C.ar  210  TYR210      0.0417
    187  CE2       15.6140   -0.1450   11.3810 C.ar  210  TYR210      0.0417
    188  CZ        16.1510    0.0300   10.1230 C.ar  210  TYR210      0.1957
    189  OH        15.3940    0.6570    9.1670 O.3   210  TYR210     -0.2866
@<TRIPOS>BOND
     1   158   159    1
     2   155   154    2
     3    70    71    1
     4   159   162    1
     5   159   160    1
     6   164   163    1
     7   164   165    1
     8   162   163    1
     9   166   165    1
    10   154   153    1
    11   160   161    2
    12    74    71    1
    13    74    75    1
    14    71    72    1
    15    73    72    2
    16   153   152    1
    17   153   156    1
    18   147   145   ar
    19   152   150   am
    20    75    77   ar
    21    75    76   ar
    22    72    78   am
    23   143   142    2
    24   156   157    1
    25   167   168    1
    26   145   144    1
    27   145   146   ar
    28   150   149    1
    29   150   151    2
    30   149   148    1
    31    78    79    1
    32   142   148   am
    33   142   141    1
    34   144   141    1
    35    81    80    2
    36   157    89    1
    37    89    88    1
    38   141   140    1
    39   168   169    1
    40    79    80    1
    41    79    82    1
    42    80    84   am
    43    88    85    1
    44   170   169    2
    45   140   138   am
    46   189   188    1
    47   169   171   am
    48    84    85    1
    49    85    86    1
    50   186   188   ar
    51   186   184   ar
    52    82    83    1
    53   138   137    1
    54   138   139    2
    55   188   187   ar
    56   171   172    1
    57   137   136    1
    58   177   175    1
    59   184   183   ar
    60    97    96    2
    61    86    90   am
    62    86    87    2
    63   187   185   ar
    64   172   175    1
    65   172   173    1
    66    90    91    1
    67   125   124    2
    68   136   124   am
    69   175   176    1
    70    67    66    1
    71    67    68    1
    72   183   185   ar
    73   183   182    1
    74   134   135   ar
    75   134   132   ar
    76    69    68    1
    77    96    98   am
    78    96    95    1
    79   124   123    1
    80    93    92    2
    81   173   178   am
    82   173   174    2
    83   135   133   ar
    84    61    62    1
    85    94    91    1
    86    94    95    1
    87    91    92    1
    88   178   179    1
    89   132   129   ar
    90    66    65    1
    91    65    62    1
    92    92    99   am
    93   182   179    1
    94   115   113    1
    95    62    63    1
    96   133   131   ar
    97   114   113    1
    98    63    64    2
    99   129   131   ar
   100   129   127   ar
   101   123   122    1
   102   123   126    1
   103   179   180    1
   104   131   130   ar
   105   113   110    1
   106   122   118   am
   107    99   100    1
   108   127   126    1
   109   127   128   ar
   110   181   180    2
   111   110   109    1
   112   110   111    1
   113   101   100    1
   114   101   102    2
   115   130   128   ar
   116   116   111   am
   117   116   117    1
   118   118   119    2
   119   118   117    1
   120   103   104    1
   121   111   112    2
   122   117   120    1
   123   120   121    1
   124   108   107    1
   125   104   107    1
   126   104   105    1
   127   105   106    2
   128    56    58   ar
   129    56    54   ar
   130    58    59   ar
   131    26    27   ar
   132    26    24   ar
   133     4     3    2
   134    27    25   ar
   135    53    54    1
   136    53    50    1
   137    54    55   ar
   138     3     2    1
   139     3    12   am
   140    14    13    1
   141    14    15    2
   142     2     1    1
   143     2     5    1
   144    13    12    1
   145    13    16    1
   146    59    60    1
   147    59    57   ar
   148    24    23   ar
   149    52    51    2
   150    47    46    2
   151    48    46   am
   152    55    57   ar
   153    25    23   ar
   154    17    16    1
   155    50    51    1
   156    50    49    1
   157     5     6    1
   158    46    45    1
   159    23    22    1
   160     6     8   ar
   161     6     7   ar
   162    22    19    1
   163    45    44    1
   164     8    10   ar
   165    39    38    1
   166     7     9   ar
   167    44    41    1
   168    21    20    2
   169    20    19    1
   170    19    18    1
   171    38    36   ar
   172    38    37   ar
   173    36    34   ar
   174    10    11   ar
   175    43    42    2
   176     9    11   ar
   177    41    42    1
   178    41    40    1
   179    37    35   ar
   180    34    33   ar
   181    40    30   am
   182    35    33   ar
   183    33    32    1
   184    31    30    2
   185    30    29    1
   186    28    29    1
   187    29    32    1
