@<TRIPOS>MOLECULE
tmp/1fy7A00.pdb
 225 219 0 0 0
SMALL
GASTEIGER

@<TRIPOS>ATOM
      1  N         93.0440    7.0970    1.0620 N.3    19  TRP19      -0.1241
      2  CA        91.6020    6.8900    1.2190 C.3    19  TRP19       0.1605
      3  C         91.0480    6.4310   -0.1220 C.2    19  TRP19       0.2264
      4  O         90.0900    5.6660   -0.1790 O.2    19  TRP19      -0.2867
      5  CB        90.8900    8.1930    1.5980 C.3    19  TRP19       0.0550
      6  CG        91.3340    8.8300    2.8750 C.ar   19  TRP19       0.0003
      7  CD1       92.2080    8.3240    3.8050 C.ar   19  TRP19       0.0946
      8  CD2       90.8940   10.0900    3.3830 C.ar   19  TRP19       0.0152
      9  NE1       92.3340    9.2010    4.8620 N.ar   19  TRP19      -0.2442
     10  CE2       91.5390   10.2930    4.6270 C.ar   19  TRP19       0.0810
     11  CE3       90.0150   11.0700    2.9100 C.ar   19  TRP19       0.0012
     12  CZ2       91.3300   11.4470    5.4020 C.ar   19  TRP19       0.0191
     13  CZ3       89.8090   12.2170    3.6870 C.ar   19  TRP19       0.0001
     14  CH2       90.4620   12.3930    4.9090 C.ar   19  TRP19       0.0015
     15  N         93.2920   11.4020   -1.3390 N.3    97  PHE97      -0.1227
     16  CA        92.3210   11.7240   -0.3020 C.3    97  PHE97       0.1736
     17  C         91.0640   12.4050   -0.8450 C.2    97  PHE97       0.2595
     18  O         90.3090   13.0300   -0.1060 O.2    97  PHE97      -0.2718
     19  CB        93.0180   12.5810    0.7550 C.3    97  PHE97       0.0547
     20  CG        94.3320   12.0040    1.1980 C.ar   97  PHE97      -0.0202
     21  CD1       95.5310   12.5070    0.7090 C.ar   97  PHE97      -0.0042
     22  CD2       94.3630   10.8820    2.0150 C.ar   97  PHE97      -0.0042
     23  CE1       96.7520   11.8920    1.0210 C.ar   97  PHE97      -0.0003
     24  CE2       95.5730   10.2550    2.3370 C.ar   97  PHE97      -0.0003
     25  CZ        96.7700   10.7630    1.8350 C.ar   97  PHE97      -0.0000
     26  N         90.8550   12.2620   -2.1480 N.am   98  LEU98      -0.1980
     27  CA        89.6960   12.8250   -2.8410 C.3    98  LEU98       0.1596
     28  C         89.0220   11.7320   -3.6720 C.2    98  LEU98       0.2287
     29  O         89.7040   10.9400   -4.3270 O.2    98  LEU98      -0.2864
     30  CB        90.1390   13.9540   -3.7740 C.3    98  LEU98       0.0297
     31  CG        90.7200   15.2190   -3.1460 C.3    98  LEU98       0.0022
     32  CD1       91.3720   16.0650   -4.2330 C.3    98  LEU98       0.0001
     33  CD2       89.6260   16.0000   -2.4330 C.3    98  LEU98       0.0001
     34  N         88.9810   25.6450   -6.0590 N.3   142  ALA142     -0.1231
     35  CA        88.6840   24.4960   -6.9160 C.3   142  ALA142      0.1694
     36  C         88.7170   23.2860   -5.9690 C.2   142  ALA142      0.2592
     37  O         87.6770   22.7290   -5.6420 O.2   142  ALA142     -0.2718
     38  CB        89.7540   24.3530   -7.9940 C.3   142  ALA142      0.0304
     39  N         89.9120   22.9030   -5.5220 N.am  143  CYS143     -0.1956
     40  CA        90.0810   21.8050   -4.5760 C.3   143  CYS143      0.1843
     41  C         90.7390   22.3900   -3.3190 C.2   143  CYS143      0.2625
     42  O         91.4440   23.3970   -3.3920 O.2   143  CYS143     -0.2714
     43  CB        90.9870   20.7340   -5.1940 C.3   143  CYS143      0.0997
     44  SG        90.9110   19.1460   -4.3220 S.3   143  CYS143     -0.0797
     45  N         90.5050   21.7690   -2.1720 N.am  144  ILE144     -0.1963
     46  CA        91.1410   22.2080   -0.9350 C.3   144  ILE144      0.1727
     47  C         91.4980   20.9540   -0.1490 C.2   144  ILE144      0.2616
     48  O         90.7280   19.9890   -0.1250 O.2   144  ILE144     -0.2715
     49  CB        90.2270   23.1420   -0.1040 C.3   144  ILE144      0.0290
     50  CG1       90.9420   23.5580    1.1880 C.3   144  ILE144      0.0022
     51  CG2       88.9100   22.4510    0.2010 C.3   144  ILE144      0.0023
     52  CD1       90.2040   24.6390    1.9660 C.3   144  ILE144      0.0001
     53  N         92.6590   20.9670    0.5000 N.am  145  LEU145     -0.1963
     54  CA        93.1110   19.7980    1.2390 C.3   145  LEU145      0.1728
     55  C         94.0470   20.0780    2.4020 C.2   145  LEU145      0.2616
     56  O         94.9350   20.9190    2.2980 O.2   145  LEU145     -0.2715
     57  CB        93.8430   18.8520    0.2790 C.3   145  LEU145      0.0311
     58  CG        94.6380   17.6880    0.8950 C.3   145  LEU145      0.0022
     59  CD1       93.6870   16.5330    1.1990 C.3   145  LEU145      0.0001
     60  CD2       95.7360   17.2230   -0.0780 C.3   145  LEU145      0.0001
     61  N         93.8360   19.3750    3.5100 N.am  146  THR146     -0.1951
     62  CA        94.7480   19.4660    4.6420 C.3   146  THR146      0.1897
     63  C         95.3370   18.0590    4.6620 C.2   146  THR146      0.2313
     64  O         94.5920   17.0790    4.7130 O.2   146  THR146     -0.2863
     65  CB        94.0320   19.7380    5.9780 C.3   146  THR146      0.1794
     66  OG1       93.5690   21.0950    6.0050 O.3   146  THR146     -0.2208
     67  CG2       94.9790   19.4990    7.1390 C.3   146  THR146      0.0378
     68  N         97.9120   16.0930    9.3510 N.3   150  TYR150     -0.1227
     69  CA        97.6920   17.4070    9.9660 C.3   150  TYR150      0.1736
     70  C         96.2240   17.8050   10.0930 C.2   150  TYR150      0.2595
     71  O         95.9200   18.9200   10.5230 O.2   150  TYR150     -0.2718
     72  CB        98.4270   18.4880    9.1720 C.3   150  TYR150      0.0548
     73  CG        99.9200   18.2830    9.0940 C.ar  150  TYR150     -0.0200
     74  CD1      100.5570   18.1460    7.8610 C.ar  150  TYR150     -0.0009
     75  CD2      100.6980   18.2080   10.2540 C.ar  150  TYR150     -0.0009
     76  CE1      101.9370   17.9360    7.7760 C.ar  150  TYR150      0.0417
     77  CE2      102.0850   17.9950   10.1840 C.ar  150  TYR150      0.0417
     78  CZ       102.6900   17.8590    8.9390 C.ar  150  TYR150      0.1957
     79  OH       104.0450   17.6300    8.8570 O.3   150  TYR150     -0.2866
     80  N         95.3130   16.9030    9.7310 N.am  151  GLN151     -0.1965
     81  CA        93.8890   17.2180    9.8010 C.3   151  GLN151      0.1733
     82  C         93.3610   17.3700   11.2260 C.2   151  GLN151      0.2616
     83  O         93.9110   16.8010   12.1800 O.2   151  GLN151     -0.2715
     84  CB        93.0690   16.1570    9.0420 C.3   151  GLN151      0.0408
     85  CG        93.1920   16.2920    7.5190 C.3   151  GLN151      0.0908
     86  CD        92.4560   15.2050    6.7450 C.2   151  GLN151      0.2608
     87  OE1       92.5120   15.1650    5.5060 O.2   151  GLN151     -0.2717
     88  NE2       91.7670   14.3210    7.4610 N.am  151  GLN151     -0.0878
     89  N         92.2980   18.1560   11.3560 N.am  152  ARG152     -0.1963
     90  CA        91.6500   18.4020   12.6340 C.3   152  ARG152      0.1729
     91  C         92.5400   19.1780   13.5970 C.2   152  ARG152      0.2616
     92  O         92.5350   18.9190   14.7960 O.2   152  ARG152     -0.2715
     93  CB        91.2010   17.0800   13.2750 C.3   152  ARG152      0.0348
     94  CG        90.2550   16.2780   12.3970 C.3   152  ARG152      0.0492
     95  CD        89.8570   14.9740   13.0600 C.3   152  ARG152      0.2205
     96  NE        88.4070   14.8190   13.0790 N.pl3 152  ARG152     -0.0865
     97  CZ        87.5850   15.6300   13.7350 C.cat 152  ARG152      0.5346
     98  NH1       88.0760   16.6470   14.4270 N.pl3 152  ARG152      0.1354
     99  NH2       86.2760   15.4370   13.6860 N.pl3 152  ARG152      0.1354
    100  N         93.2900   20.1360   13.0580 N.am  153  MET153     -0.1963
    101  CA        94.1800   20.9830   13.8480 C.3   153  MET153      0.1736
    102  C         93.8620   22.4490   13.5760 C.2   153  MET153      0.2617
    103  O         94.5350   23.3460   14.0790 O.2   153  MET153     -0.2715
    104  CB        95.6450   20.6930   13.5010 C.3   153  MET153      0.0427
    105  CG        96.1680   19.3490   14.0040 C.3   153  MET153      0.0599
    106  SD        97.9040   19.0690   13.5400 S.3   153  MET153     -0.1393
    107  CE        98.7300   20.4030   14.4570 C.3   153  MET153      0.0692
    108  N         92.8310   22.6840   12.7680 N.am  154  GLY154     -0.1940
    109  CA        92.4320   24.0490   12.4490 C.3   154  GLY154      0.2014
    110  C         93.0220   24.6070   11.1600 C.2   154  GLY154      0.2639
    111  O         92.6980   25.7190   10.7600 O.2   154  GLY154     -0.2714
    112  N         93.8660   23.8260   10.4950 N.am  155  TYR155     -0.1959
    113  CA        94.5040   24.2760    9.2600 C.3   155  TYR155      0.1771
    114  C         93.5090   24.4650    8.1150 C.2   155  TYR155      0.2620
    115  O         93.6420   25.3880    7.3110 O.2   155  TYR155     -0.2715
    116  CB        95.5950   23.2820    8.8630 C.3   155  TYR155      0.0574
    117  CG        96.7150   23.1570    9.8830 C.ar  155  TYR155     -0.0198
    118  CD1       97.5400   22.0290    9.9140 C.ar  155  TYR155     -0.0009
    119  CD2       96.9570   24.1700   10.8160 C.ar  155  TYR155     -0.0009
    120  CE1       98.5780   21.9160   10.8530 C.ar  155  TYR155      0.0417
    121  CE2       97.9920   24.0620   11.7560 C.ar  155  TYR155      0.0417
    122  CZ        98.7950   22.9330   11.7650 C.ar  155  TYR155      0.1957
    123  OH        99.8140   22.8300   12.6870 O.3   155  TYR155     -0.2866
    124  N         92.5130   23.5860    8.0390 N.am  156  GLY156     -0.1940
    125  CA        91.5150   23.7000    6.9900 C.3   156  GLY156      0.2014
    126  C         90.7800   25.0250    7.0370 C.2   156  GLY156      0.2638
    127  O         90.5600   25.6550    6.0030 O.2   156  GLY156     -0.2714
    128  N         90.4030   25.4560    8.2380 N.am  157  LYS157     -0.1977
    129  CA        89.6750   26.7110    8.3950 C.3   157  LYS157      0.1596
    130  C         90.5600   27.8840    7.9800 C.2   157  LYS157      0.2287
    131  O         90.0690   28.8850    7.4660 O.2   157  LYS157     -0.2864
    132  CB        89.2150   26.8780    9.8450 C.3   157  LYS157      0.0298
    133  CG        88.4300   28.1590   10.0860 C.3   157  LYS157      0.0038
    134  CD        88.0180   28.2980   11.5430 C.3   157  LYS157      0.0206
    135  CE        87.3700   29.6580   11.8090 C.3   157  LYS157      0.1093
    136  NZ        86.0630   29.8260   11.1030 N.3   157  LYS157     -0.1314
    137  N         90.5900   28.0450    4.1570 N.3   160  ILE160     -0.1245
    138  CA        89.3600   28.6530    3.6890 C.3   160  ILE160      0.1561
    139  C         89.3600   30.1620    3.9240 C.2   160  ILE160      0.2260
    140  O         89.0530   30.9340    3.0280 O.2   160  ILE160     -0.2867
    141  CB        88.1280   28.0430    4.3930 C.3   160  ILE160      0.0252
    142  CG1       87.9510   26.5920    3.9520 C.3   160  ILE160      0.0019
    143  CG2       86.8830   28.8780    4.0740 C.3   160  ILE160      0.0019
    144  CD1       86.9160   25.8230    4.7610 C.3   160  ILE160      0.0001
    145  N         84.0670   25.4410   -5.3430 N.3   177  GLU177     -0.1245
    146  CA        83.5160   24.6870   -6.4600 C.3   177  GLU177      0.1567
    147  C         82.5740   23.5960   -5.9560 C.2   177  GLU177      0.2260
    148  O         82.8490   22.9640   -4.9340 O.2   177  GLU177     -0.2867
    149  CB        84.6430   24.0420   -7.2710 C.3   177  GLU177      0.0388
    150  CG        84.1550   23.3350   -8.5260 C.3   177  GLU177      0.1160
    151  CD        85.2870   22.7440   -9.3540 C.2   177  GLU177      0.3649
    152  OE1       86.3780   23.3480   -9.3900 O.co2 177  GLU177     -0.2457
    153  OE2       85.0690   21.6840   -9.9860 O.co2 177  GLU177     -0.2457
    154  N         80.4130   19.9670   -6.9360 N.3   179  PRO179     -0.2102
    155  CA        79.9870   19.5770   -5.5920 C.3   179  PRO179      0.1504
    156  C         81.1730   19.4540   -4.6440 C.2   179  PRO179      0.2576
    157  O         82.3100   19.2290   -5.0830 O.2   179  PRO179     -0.2718
    158  CB        79.3150   18.2360   -5.8350 C.3   179  PRO179      0.0282
    159  CG        80.2170   17.6440   -6.8900 C.3   179  PRO179      0.0208
    160  CD        80.3910   18.8050   -7.8460 C.3   179  PRO179      0.0893
    161  N         80.9060   19.6110   -3.3500 N.am  180  LEU180     -0.1966
    162  CA        81.9490   19.4870   -2.3390 C.3   180  LEU180      0.1728
    163  C         81.8100   18.1360   -1.6560 C.2   180  LEU180      0.2616
    164  O         80.7130   17.5870   -1.5820 O.2   180  LEU180     -0.2715
    165  CB        81.8250   20.5770   -1.2690 C.3   180  LEU180      0.0311
    166  CG        82.2980   22.0070   -1.5510 C.3   180  LEU180      0.0022
    167  CD1       81.2550   22.7340   -2.3720 C.3   180  LEU180      0.0001
    168  CD2       82.5090   22.7350   -0.2320 C.3   180  LEU180      0.0001
    169  N         82.9190   17.5930   -1.1700 N.am  181  SER181     -0.1950
    170  CA        82.8700   16.3320   -0.4450 C.3   181  SER181      0.1924
    171  C         82.1580   16.6830    0.8670 C.2   181  SER181      0.2314
    172  O         82.0540   17.8660    1.2210 O.2   181  SER181     -0.2863
    173  CB        84.2860   15.8500   -0.1330 C.3   181  SER181      0.2116
    174  OG        85.0100   16.8720    0.5450 O.3   181  SER181     -0.2180
    175  N         83.2120   16.1610    3.8670 N.3   183  LEU183     -0.1231
    176  CA        84.2390   16.7660    4.7200 C.3   183  LEU183      0.1693
    177  C         84.3820   18.2510    4.3670 C.2   183  LEU183      0.2592
    178  O         84.3820   19.1210    5.2410 O.2   183  LEU183     -0.2718
    179  CB        85.5780   16.0470    4.5130 C.3   183  LEU183      0.0284
    180  CG        85.9960   14.9240    5.4660 C.3   183  LEU183      0.0019
    181  CD1       84.7970   14.3550    6.1820 C.3   183  LEU183      0.0001
    182  CD2       86.7430   13.8460    4.6900 C.3   183  LEU183      0.0001
    183  N         84.4970   18.5230    3.0720 N.am  184  GLY184     -0.1957
    184  CA        84.6340   19.8930    2.6060 C.3   184  GLY184      0.1869
    185  C         83.4340   20.7760    2.9360 C.2   184  GLY184      0.2309
    186  O         83.5930   21.8820    3.4660 O.2   184  GLY184     -0.2863
    187  N         81.1280   20.3600    5.2390 N.3   186  LEU186     -0.1231
    188  CA        80.9860   20.5660    6.6770 C.3   186  LEU186      0.1693
    189  C         82.0030   21.5890    7.1950 C.2   186  LEU186      0.2592
    190  O         81.7020   22.3510    8.1120 O.2   186  LEU186     -0.2718
    191  CB        81.1260   19.2420    7.4300 C.3   186  LEU186      0.0284
    192  CG        79.9770   18.2470    7.2100 C.3   186  LEU186      0.0019
    193  CD1       80.1560   17.0330    8.1270 C.3   186  LEU186      0.0001
    194  CD2       78.6510   18.9200    7.4890 C.3   186  LEU186      0.0001
    195  N         83.1970   21.6080    6.6060 N.am  187  SER187     -0.1952
    196  CA        84.2130   22.5710    7.0150 C.3   187  SER187      0.1924
    197  C         83.8000   23.9910    6.6160 C.2   187  SER187      0.2314
    198  O         84.0070   24.9430    7.3730 O.2   187  SER187     -0.2863
    199  CB        85.5710   22.2360    6.3930 C.3   187  SER187      0.2116
    200  OG        86.1730   21.1540    7.0850 O.3   187  SER187     -0.2180
    201  N         81.0350   25.3340    8.9170 N.3   190  ALA190     -0.1245
    202  CA        81.5590   25.7680   10.2100 C.3   190  ALA190      0.1562
    203  C         82.2230   27.1280   10.0300 C.2   190  ALA190      0.2260
    204  O         82.0530   28.0280   10.8520 O.2   190  ALA190     -0.2867
    205  CB        82.5800   24.7490   10.7520 C.3   190  ALA190      0.0290
    206  N         88.3360   28.4950   22.4640 N.3   258  LYS258     -0.1245
    207  CA        89.2340   27.5660   21.7880 C.3   258  LYS258      0.1561
    208  C         90.5160   28.2530   21.3360 C.2   258  LYS258      0.2260
    209  O         91.4440   27.5970   20.8660 O.2   258  LYS258     -0.2867
    210  CB        88.5440   26.9610   20.5650 C.3   258  LYS258      0.0271
    211  CG        87.2500   26.2290   20.8640 C.3   258  LYS258      0.0035
    212  CD        86.6020   25.7450   19.5770 C.3   258  LYS258      0.0206
    213  CE        85.2910   25.0340   19.8430 C.3   258  LYS258      0.1093
    214  NZ        84.6590   24.5790   18.5750 N.3   258  LYS258     -0.1314
    215  N         91.6250   29.8560   18.7230 N.3   260  ARG260     -0.1245
    216  CA        92.1010   29.3880   17.4270 C.3   260  ARG260      0.1563
    217  C         92.8650   30.4760   16.6890 C.2   260  ARG260      0.2260
    218  O         92.5840   31.6620   16.8460 O.2   260  ARG260     -0.2867
    219  CB        90.9190   28.9530   16.5600 C.3   260  ARG260      0.0307
    220  CG        90.1820   27.7300   17.0590 C.3   260  ARG260      0.0489
    221  CD        88.9010   27.5150   16.2690 C.3   260  ARG260      0.2205
    222  NE        88.3860   26.1670   16.4590 N.pl3 260  ARG260     -0.0865
    223  CZ        88.9910   25.0730   16.0060 C.cat 260  ARG260      0.5346
    224  NH1       90.1320   25.1740   15.3350 N.pl3 260  ARG260      0.1354
    225  NH2       88.4630   23.8780   16.2330 N.pl3 260  ARG260      0.1354
@<TRIPOS>BOND
     1   153   151   ar
     2   152   151   ar
     3   151   150    1
     4   150   149    1
     5    38    35    1
     6   160   154    1
     7   160   159    1
     8   149   146    1
     9   154   155    1
    10    35    34    1
    11    35    36    1
    12   159   158    1
    13   146   147    1
    14   146   145    1
    15    36    37    2
    16    36    39   am
    17   147   148    2
    18   158   155    1
    19   155   156    1
    20    39    40    1
    21    43    40    1
    22    43    44    1
    23   157   156    2
    24   156   161   am
    25    40    41    1
    26    29    28    2
    27    32    31    1
    28    30    31    1
    29    30    27    1
    30    28    27    1
    31    42    41    2
    32   161   162    1
    33    41    45   am
    34    31    33    1
    35    27    26    1
    36   167   166    1
    37   162   163    1
    38   162   165    1
    39    45    46    1
    40    26    17   am
    41   163   164    2
    42   163   169   am
    43   166   165    1
    44   166   168    1
    45    15    16    1
    46   169   170    1
    47    46    47    1
    48    46    49    1
    49    17    16    1
    50    17    18    2
    51   170   173    1
    52   170   171    1
    53    16    19    1
    54     4     3    2
    55    47    48    2
    56    47    53   am
    57   173   174    1
    58     3     2    1
    59    49    51    1
    60    49    50    1
    61    60    58    1
    62    57    58    1
    63    57    54    1
    64    53    54    1
    65    21    23   ar
    66    21    20   ar
    67    19    20    1
    68   171   172    2
    69    58    59    1
    70    23    25   ar
    71     1     2    1
    72    50    52    1
    73    20    22   ar
    74     2     5    1
    75    54    55    1
    76     5     6    1
    77    25    24   ar
    78    22    24   ar
    79    56    55    2
    80    55    61   am
    81   184   185    1
    82   184   183    1
    83     6     8   ar
    84     6     7   ar
    85    11     8   ar
    86    11    13   ar
    87   185   186    2
    88   140   139    2
    89   183   177   am
    90     8    10   ar
    91    61    62    1
    92    13    14   ar
    93   138   139    1
    94   138   137    1
    95   138   141    1
    96     7     9   ar
    97   175   176    1
    98   142   141    1
    99   142   144    1
   100   143   141    1
   101   177   176    1
   102   177   178    2
   103   179   176    1
   104   179   180    1
   105    10     9   ar
   106    10    12   ar
   107    62    63    1
   108    62    65    1
   109    63    64    2
   110   182   180    1
   111    14    12   ar
   112   187   188    1
   113   180   181    1
   114    87    86    2
   115    65    66    1
   116    65    67    1
   117   127   126    2
   118   199   196    1
   119   199   200    1
   120   195   196    1
   121   195   189   am
   122   197   196    1
   123   197   198    2
   124   188   189    1
   125   188   191    1
   126    86    88   am
   127    86    85    1
   128   125   126    1
   129   125   124    1
   130   126   128   am
   131   189   190    2
   132   192   191    1
   133   192   194    1
   134   192   193    1
   135   115   114    2
   136   131   130    2
   137    85    84    1
   138    76    74   ar
   139    76    78   ar
   140    74    73   ar
   141   130   129    1
   142   124   114   am
   143   114   113    1
   144   128   129    1
   145   129   132    1
   146    79    78    1
   147   116   113    1
   148   116   117    1
   149   201   202    1
   150    78    77   ar
   151    84    81    1
   152    73    72    1
   153    73    75   ar
   154    72    69    1
   155   113   112    1
   156    68    69    1
   157    80    81    1
   158    80    70   am
   159    81    82    1
   160   132   133    1
   161   117   118   ar
   162   117   119   ar
   163   118   120   ar
   164    69    70    1
   165   203   202    1
   166   203   204    2
   167   133   134    1
   168    70    71    2
   169    77    75   ar
   170   202   205    1
   171   112   110   am
   172   111   110    2
   173   119   121   ar
   174   120   122   ar
   175   136   135    1
   176   110   109    1
   177    82    89   am
   178    82    83    2
   179    89    90    1
   180   134   135    1
   181   121   122   ar
   182   122   123    1
   183    94    95    1
   184    94    93    1
   185   109   108    1
   186    90    93    1
   187    90    91    1
   188   108   102   am
   189   100    91   am
   190   100   101    1
   191    95    96    1
   192    96    97    2
   193   104   101    1
   194   104   105    1
   195   106   105    1
   196   106   107    1
   197   102   101    1
   198   102   103    2
   199    91    92    2
   200    99    97    1
   201    97    98    1
   202   224   223    1
   203   223   225    1
   204   223   222    2
   205   221   222    1
   206   221   220    1
   207   219   220    1
   208   219   216    1
   209   217   218    2
   210   217   216    1
   211   216   215    1
   212   214   213    1
   213   212   213    1
   214   212   211    1
   215   210   211    1
   216   210   207    1
   217   209   208    2
   218   208   207    1
   219   207   206    1
