@<TRIPOS>MOLECULE
tmp/1fynA00.pdb
 128 126 0 0 0
SMALL
GASTEIGER

@<TRIPOS>ATOM
      1  N         11.1880   -5.3950   10.0850 N.3    11  TYR11      -0.1241
      2  CA        12.1690   -5.7330    9.0480 C.3    11  TYR11       0.1605
      3  C         13.2890   -4.6900    9.0100 C.2    11  TYR11       0.2264
      4  O         13.1490   -3.5970    9.5550 O.2    11  TYR11      -0.2867
      5  CB        11.5130   -5.7450    7.6580 C.3    11  TYR11       0.0534
      6  CG        10.1490   -6.3680    7.6200 C.ar   11  TYR11      -0.0201
      7  CD1        9.9910   -7.7640    7.5230 C.ar   11  TYR11      -0.0009
      8  CD2        9.0060   -5.5730    7.7080 C.ar   11  TYR11      -0.0009
      9  CE1        8.7170   -8.3420    7.5240 C.ar   11  TYR11       0.0417
     10  CE2        7.7450   -6.1360    7.7120 C.ar   11  TYR11       0.0417
     11  CZ         7.6020   -7.5190    7.6240 C.ar   11  TYR11       0.1957
     12  OH         6.3390   -8.0670    7.7000 O.3    11  TYR11      -0.2866
     13  N         15.6140   -1.9670    7.0780 N.3    13  TYR13      -0.1241
     14  CA        15.2460   -1.0210    6.0300 C.3    13  TYR13       0.1605
     15  C         16.4190   -0.1020    5.8050 C.2    13  TYR13       0.2264
     16  O         17.0600    0.3260    6.7520 O.2    13  TYR13      -0.2867
     17  CB        14.0070   -0.2040    6.4300 C.3    13  TYR13       0.0534
     18  CG        13.6350    0.8770    5.4240 C.ar   13  TYR13      -0.0201
     19  CD1       12.8660    0.5740    4.3040 C.ar   13  TYR13      -0.0009
     20  CD2       14.0930    2.1870    5.5740 C.ar   13  TYR13      -0.0009
     21  CE1       12.5690    1.5410    3.3520 C.ar   13  TYR13       0.0417
     22  CE2       13.8040    3.1600    4.6370 C.ar   13  TYR13       0.0417
     23  CZ        13.0460    2.8380    3.5250 C.ar   13  TYR13       0.1957
     24  OH        12.7830    3.7950    2.5590 O.3    13  TYR13      -0.2866
     25  N         16.2730    5.2320    1.4360 N.3    16  ARG16      -0.1231
     26  CA        16.4110    5.4680    0.0010 C.3    16  ARG16       0.1694
     27  C         16.7440    6.9310   -0.3200 C.2    16  ARG16       0.2592
     28  O         17.4860    7.2120   -1.2630 O.2    16  ARG16      -0.2718
     29  CB        15.1330    5.0570   -0.7230 C.3    16  ARG16       0.0321
     30  CG        15.0630    3.5880   -1.0630 C.3    16  ARG16       0.0489
     31  CD        13.8690    3.2900   -1.9860 C.3    16  ARG16       0.2205
     32  NE        12.5920    3.7580   -1.4320 N.pl3  16  ARG16      -0.0865
     33  CZ        11.7730    3.0270   -0.6830 C.cat  16  ARG16       0.5346
     34  NH1       12.0730    1.7750   -0.3840 N.pl3  16  ARG16       0.1354
     35  NH2       10.6560    3.5610   -0.2120 N.pl3  16  ARG16       0.1354
     36  N         16.1870    7.8520    0.4690 N.am   17  THR17      -0.1953
     37  CA        16.3860    9.2950    0.2920 C.3    17  THR17       0.1897
     38  C         17.1340    9.9260    1.4830 C.2    17  THR17       0.2313
     39  O         17.5810    9.2230    2.4010 O.2    17  THR17      -0.2863
     40  CB        15.0030   10.0000    0.0500 C.3    17  THR17       0.1794
     41  OG1       15.1310   11.4240    0.1400 O.3    17  THR17      -0.2208
     42  CG2       13.9710    9.5220    1.0550 C.3    17  THR17       0.0378
     43  N         15.7440   12.1360    3.4730 N.3    19  ASP19      -0.1225
     44  CA        14.7690   12.3210    4.5470 C.3    19  ASP19       0.1805
     45  C         14.4380   11.0980    5.4090 C.2    19  ASP19       0.2597
     46  O         14.1410   11.2490    6.5950 O.2    19  ASP19      -0.2718
     47  CB        13.4670   12.9250    3.9960 C.3    19  ASP19       0.1424
     48  CG        13.6390   14.3630    3.5170 C.2    19  ASP19       0.3668
     49  OD1       14.5020   15.0920    4.0600 O.co2  19  ASP19      -0.2456
     50  OD2       12.9050   14.7670    2.5900 O.co2  19  ASP19      -0.2456
     51  N         14.4400    9.9010    4.8180 N.am   20  ASP20      -0.1974
     52  CA        14.1100    8.6960    5.5780 C.3    20  ASP20       0.1709
     53  C         15.2530    8.0960    6.3940 C.2    20  ASP20       0.2293
     54  O         16.4250    8.3640    6.1320 O.2    20  ASP20      -0.2864
     55  CB        13.4440    7.6350    4.6880 C.3    20  ASP20       0.1436
     56  CG        14.3370    7.1510    3.5580 C.2    20  ASP20       0.3671
     57  OD1       15.4380    7.7150    3.3640 O.co2  20  ASP20      -0.2456
     58  OD2       13.9300    6.2090    2.8470 O.co2  20  ASP20      -0.2456
     59  N          0.2260   11.4750    8.2930 N.3    36  GLU36      -0.1245
     60  CA         0.2830   11.2940    6.8500 C.3    36  GLU36       0.1567
     61  C         -0.0070    9.8950    6.3160 C.2    36  GLU36       0.2260
     62  O         -0.0710    9.6980    5.1020 O.2    36  GLU36      -0.2867
     63  CB         1.5910   11.8280    6.2880 C.3    36  GLU36       0.0388
     64  CG         1.4510   12.3530    4.8770 C.3    36  GLU36       0.1160
     65  CD         2.7650   12.8450    4.3240 C.2    36  GLU36       0.3649
     66  OE1        3.3490   13.7710    4.9400 O.co2  36  GLU36      -0.2457
     67  OE2        3.2210   12.2960    3.2910 O.co2  36  GLU36      -0.2457
     68  N          1.3980    7.1670    5.1270 N.3    38  ASP38      -0.1225
     69  CA         2.4000    6.2790    4.5280 C.3    38  ASP38       0.1805
     70  C          3.7670    6.4250    5.1810 C.2    38  ASP38       0.2597
     71  O          4.4300    5.4420    5.4910 O.2    38  ASP38      -0.2718
     72  CB         2.4810    6.4250    2.9910 C.3    38  ASP38       0.1424
     73  CG         2.5890    7.8800    2.5100 C.2    38  ASP38       0.3668
     74  OD1        2.4530    8.8240    3.3240 O.co2  38  ASP38      -0.2456
     75  OD2        2.7980    8.0740    1.2890 O.co2  38  ASP38      -0.2456
     76  N          4.1510    7.6650    5.4400 N.am   39  TRP39      -0.1976
     77  CA         5.4220    7.9640    6.0610 C.3    39  TRP39       0.1640
     78  C          5.1630    8.6660    7.3960 C.2    39  TRP39       0.2290
     79  O          4.3460    9.5700    7.5030 O.2    39  TRP39      -0.2864
     80  CB         6.2650    8.8310    5.1190 C.3    39  TRP39       0.0576
     81  CG         6.7170    8.1260    3.8220 C.ar   39  TRP39       0.0006
     82  CD1        6.1340    8.2200    2.5730 C.ar   39  TRP39       0.0946
     83  CD2        7.8910    7.3170    3.6470 C.ar   39  TRP39       0.0152
     84  NE1        6.8910    7.5390    1.6480 N.ar   39  TRP39      -0.2442
     85  CE2        7.9680    6.9750    2.2830 C.ar   39  TRP39       0.0810
     86  CE3        8.8890    6.8580    4.5130 C.ar   39  TRP39       0.0012
     87  CZ2        9.0100    6.1880    1.7680 C.ar   39  TRP39       0.0191
     88  CZ3        9.9190    6.0870    4.0030 C.ar   39  TRP39       0.0001
     89  CH2        9.9730    5.7570    2.6480 C.ar   39  TRP39       0.0015
     90  N         12.0180   10.0880    8.5790 N.3    52  TYR52      -0.1241
     91  CA        10.8080    9.3680    8.1970 C.3    52  TYR52       0.1605
     92  C         11.0360    7.8600    8.0540 C.2    52  TYR52       0.2264
     93  O         12.1280    7.4460    7.6720 O.2    52  TYR52      -0.2867
     94  CB        10.2730    9.9260    6.8710 C.3    52  TYR52       0.0534
     95  CG         9.6760   11.2920    7.0180 C.ar   52  TYR52      -0.0201
     96  CD1        8.3710   11.4460    7.4700 C.ar   52  TYR52      -0.0009
     97  CD2       10.4380   12.4390    6.7740 C.ar   52  TYR52      -0.0009
     98  CE1        7.8310   12.6920    7.6860 C.ar   52  TYR52       0.0417
     99  CE2        9.9060   13.7060    6.9890 C.ar   52  TYR52       0.0417
    100  CZ         8.5980   13.8210    7.4480 C.ar   52  TYR52       0.1957
    101  OH         8.0600   15.0690    7.6800 O.3    52  TYR52      -0.2866
    102  N          8.7150    3.9790    6.8140 N.3    54  PRO54      -0.2116
    103  CA         7.4680    3.4240    6.2320 C.3    54  PRO54       0.1372
    104  C          6.6130    2.8540    7.3660 C.2    54  PRO54       0.2244
    105  O          7.1400    2.1450    8.2260 O.2    54  PRO54      -0.2868
    106  CB         7.9670    2.2980    5.3100 C.3    54  PRO54       0.0268
    107  CG         9.4400    2.6310    5.0550 C.3    54  PRO54       0.0207
    108  CD         9.8940    3.1900    6.3980 C.3    54  PRO54       0.0892
    109  N          4.2380    0.5710    7.2980 N.3    56  ASN56      -0.1225
    110  CA         3.9840   -0.8660    7.1290 C.3    56  ASN56       0.1785
    111  C          5.1080   -1.7620    7.6570 C.2    56  ASN56       0.2597
    112  O          4.9350   -2.9730    7.8180 O.2    56  ASN56      -0.2718
    113  CB         3.6980   -1.2010    5.6440 C.3    56  ASN56       0.1169
    114  CG         4.7130   -0.5990    4.6850 C.2    56  ASN56       0.2627
    115  OD1        5.3150    0.4280    4.9730 O.2    56  ASN56      -0.2716
    116  ND2        4.8770   -1.2180    3.5190 N.am   56  ASN56      -0.0877
    117  N          6.2450   -1.1490    7.9700 N.am   57  TYR57      -0.1976
    118  CA         7.4210   -1.8610    8.4780 C.3    57  TYR57       0.1639
    119  C          7.5510   -1.9290    9.9890 C.2    57  TYR57       0.2290
    120  O          8.4080   -2.6510   10.4760 O.2    57  TYR57      -0.2864
    121  CB         8.6990   -1.2260    7.9310 C.3    57  TYR57       0.0560
    122  CG         9.0890   -1.6760    6.5570 C.ar   57  TYR57      -0.0198
    123  CD1        8.2290   -1.5170    5.4700 C.ar   57  TYR57      -0.0009
    124  CD2       10.3260   -2.2590    6.3420 C.ar   57  TYR57      -0.0009
    125  CE1        8.5980   -1.9350    4.1910 C.ar   57  TYR57       0.0417
    126  CE2       10.7070   -2.6790    5.0780 C.ar   57  TYR57       0.0417
    127  CZ         9.8440   -2.5170    4.0120 C.ar   57  TYR57       0.1957
    128  OH        10.2470   -2.9640    2.7790 O.3    57  TYR57      -0.2866
@<TRIPOS>BOND
     1    31    32    1
     2    31    30    1
     3    32    33    2
     4    28    27    2
     5    30    29    1
     6    29    26    1
     7    33    34    1
     8    33    35    1
     9    27    26    1
    10    27    36   am
    11    26    25    1
    12    40    41    1
    13    40    37    1
    14    40    42    1
    15    37    36    1
    16    37    38    1
    17    75    73   ar
    18    38    39    2
    19    84    85   ar
    20    84    82   ar
    21    87    85   ar
    22    87    89   ar
    23    85    83   ar
    24    73    72    1
    25    73    74   ar
    26    24    23    1
    27    82    81   ar
    28    50    48   ar
    29    89    88   ar
    30   128   127    1
    31    58    56   ar
    32    72    69    1
    33    67    65   ar
    34    21    23   ar
    35    21    19   ar
    36    57    56   ar
    37    43    44    1
    38    48    47    1
    39    48    49   ar
    40   116   114   am
    41    23    22   ar
    42    56    55    1
    43    83    81   ar
    44    83    86   ar
    45    81    80    1
    46    47    44    1
    47    88    86   ar
    48   127   125   ar
    49   127   126   ar
    50   125   123   ar
    51    19    18   ar
    52    65    64    1
    53    65    66   ar
    54    69    68    1
    55    69    70    1
    56    44    45    1
    57    22    20   ar
    58   114   115    2
    59   114   113    1
    60    55    52    1
    61    51    45   am
    62    51    52    1
    63    64    63    1
    64   107   106    1
    65   107   108    1
    66   126   124   ar
    67    62    61    2
    68    80    77    1
    69    70    76   am
    70    70    71    2
    71   106   103    1
    72    45    46    2
    73    18    20   ar
    74    18    17    1
    75    76    77    1
    76   123   122   ar
    77    52    53    1
    78   113   110    1
    79    15    14    1
    80    15    16    2
    81    14    17    1
    82    14    13    1
    83    77    78    1
    84    54    53    2
    85   103   102    1
    86   103   104    1
    87    63    60    1
    88    61    60    1
    89   124   122   ar
    90   108   102    1
    91   122   121    1
    92    97    99   ar
    93    97    95   ar
    94    60    59    1
    95    94    95    1
    96    94    91    1
    97    99   100   ar
    98    95    96   ar
    99   110   109    1
   100   110   111    1
   101   104   105    2
   102    78    79    2
   103   100   101    1
   104   100    98   ar
   105    96    98   ar
   106     7     9   ar
   107     7     6   ar
   108     9    11   ar
   109     6     5    1
   110     6     8   ar
   111    11    12    1
   112    11    10   ar
   113   111   112    2
   114   111   117   am
   115     5     2    1
   116    93    92    2
   117     8    10   ar
   118   121   118    1
   119   117   118    1
   120    92    91    1
   121    91    90    1
   122   118   119    1
   123     3     2    1
   124     3     4    2
   125     2     1    1
   126   119   120    2
