@<TRIPOS>MOLECULE
tmp/1fzdF00.pdb
 90 85 0 0 0
SMALL
GASTEIGER

@<TRIPOS>ATOM
      1  N        121.2980   66.7630   -0.0700 N.3    17  ASN17      -0.1240
      2  CA       121.0730   67.7290   -1.1480 C.3    17  ASN17       0.1653
      3  C        121.9010   67.2610   -2.3320 C.2    17  ASN17       0.2266
      4  O        122.9540   67.8530   -2.5860 O.2    17  ASN17      -0.2867
      5  CB       121.3970   69.1740   -0.7150 C.3    17  ASN17       0.1155
      6  CG       120.8240   70.1840   -1.6980 C.2    17  ASN17       0.2627
      7  OD1      120.3220   69.7520   -2.7420 O.2    17  ASN17      -0.2716
      8  ND2      120.9620   71.5000   -1.4810 N.am   17  ASN17      -0.0877
      9  N        117.6260   69.1070   -7.5150 N.3   119  PHE119     -0.1227
     10  CA       117.9350   70.4940   -7.8620 C.3   119  PHE119      0.1736
     11  C        118.3630   70.6190   -9.3270 C.2   119  PHE119      0.2595
     12  O        118.1930   71.6850   -9.9130 O.2   119  PHE119     -0.2718
     13  CB       118.9750   71.0980   -6.9490 C.3   119  PHE119      0.0547
     14  CG       120.3770   70.5940   -7.0940 C.ar  119  PHE119     -0.0202
     15  CD1      121.1820   70.9620   -8.1510 C.ar  119  PHE119     -0.0042
     16  CD2      120.9040   69.7540   -6.1140 C.ar  119  PHE119     -0.0042
     17  CE1      122.4840   70.4930   -8.2420 C.ar  119  PHE119     -0.0003
     18  CE2      122.1990   69.2720   -6.1930 C.ar  119  PHE119     -0.0003
     19  CZ       122.9930   69.6510   -7.2650 C.ar  119  PHE119     -0.0000
     20  N        118.9170   69.5790   -9.9250 N.am  120  ASP120     -0.1974
     21  CA       119.4360   69.6240  -11.2770 C.3   120  ASP120      0.1709
     22  C        118.4960   68.9500  -12.2630 C.2   120  ASP120      0.2293
     23  O        118.7840   68.9540  -13.4620 O.2   120  ASP120     -0.2864
     24  CB       120.8260   69.0310  -11.4700 C.3   120  ASP120      0.1436
     25  CG       121.0600   67.5960  -11.0820 C.2   120  ASP120      0.3671
     26  OD1      120.2800   66.9990  -10.3050 O.co2 120  ASP120     -0.2456
     27  OD2      122.0700   66.9930  -11.5270 O.co2 120  ASP120     -0.2456
     28  N        111.7370   75.7790   -8.6000 N.3   129  ASN129     -0.1240
     29  CA       112.3830   74.4930   -8.3630 C.3   129  ASN129      0.1653
     30  C        112.2440   74.0100   -6.9150 C.2   129  ASN129      0.2266
     31  O        113.0060   74.4350   -6.0460 O.2   129  ASN129     -0.2867
     32  CB       113.8510   74.5740   -8.7660 C.3   129  ASN129      0.1155
     33  CG       114.6250   73.2640   -8.7690 C.2   129  ASN129      0.2627
     34  OD1      114.4460   72.3340   -7.9710 O.2   129  ASN129     -0.2716
     35  ND2      115.5780   73.1590   -9.7000 N.am  129  ASN129     -0.0877
     36  N        115.6230   72.3960   -5.1020 N.3   132  GLU132     -0.1231
     37  CA       116.6290   73.3700   -4.6830 C.3   132  GLU132      0.1699
     38  C        116.3100   73.9920   -3.3240 C.2   132  GLU132      0.2592
     39  O        117.1360   74.1270   -2.4320 O.2   132  GLU132     -0.2718
     40  CB       116.7170   74.4910   -5.7190 C.3   132  GLU132      0.0402
     41  CG       117.5920   75.6820   -5.3190 C.3   132  GLU132      0.1161
     42  CD       117.2250   76.8960   -6.1650 C.2   132  GLU132      0.3649
     43  OE1      116.9470   76.7310   -7.3690 O.co2 132  GLU132     -0.2457
     44  OE2      117.1450   77.9960   -5.5880 O.co2 132  GLU132     -0.2457
     45  N        115.0270   74.3040   -3.2060 N.am  133  VAL133     -0.1980
     46  CA       114.4560   75.0310   -2.0840 C.3   133  VAL133      0.1595
     47  C        114.1350   74.1480   -0.9080 C.2   133  VAL133      0.2287
     48  O        114.3110   74.5430    0.2540 O.2   133  VAL133     -0.2864
     49  CB       113.2210   75.7990   -2.6220 C.3   133  VAL133      0.0276
     50  CG1      111.9150   75.5520   -1.9230 C.3   133  VAL133      0.0022
     51  CG2      113.5370   77.3060   -2.5800 C.3   133  VAL133      0.0022
     52  N        115.5650   71.1620   -0.5400 N.3   135  GLY135     -0.1225
     53  CA       116.8080   70.5600   -0.1130 C.3   135  GLY135      0.1811
     54  C        117.0940   69.0910   -0.3440 C.2   135  GLY135      0.2280
     55  O        118.1190   68.6040    0.1770 O.2   135  GLY135     -0.2866
     56  N        115.9390   68.6440    5.1050 N.3   151  ILE151     -0.1245
     57  CA       117.1420   69.1380    5.7670 C.3   151  ILE151      0.1561
     58  C        117.0700   68.6990    7.2160 C.2   151  ILE151      0.2260
     59  O        116.0390   68.9460    7.8680 O.2   151  ILE151     -0.2867
     60  CB       117.3010   70.6710    5.6840 C.3   151  ILE151      0.0252
     61  CG1      117.6240   71.1950    4.2790 C.3   151  ILE151      0.0019
     62  CG2      118.4000   71.0870    6.6650 C.3   151  ILE151      0.0019
     63  CD1      118.9530   70.7670    3.6780 C.3   151  ILE151      0.0001
     64  N        119.6260   79.2010    3.0820 N.3   165  PRO165     -0.2102
     65  CA       119.1680   80.3510    2.3490 C.3   165  PRO165      0.1504
     66  C        117.6880   80.6200    2.1760 C.2   165  PRO165      0.2575
     67  O        117.3590   81.7100    1.6880 O.2   165  PRO165     -0.2718
     68  CB       119.7640   80.1400    0.9440 C.3   165  PRO165      0.0282
     69  CG       119.9520   78.6710    0.8310 C.3   165  PRO165      0.0208
     70  CD       120.3520   78.2300    2.2070 C.3   165  PRO165      0.0893
     71  N        116.8080   79.6970    2.5150 N.am  166  TYR166     -0.1977
     72  CA       115.3790   79.8750    2.2960 C.3   166  TYR166      0.1639
     73  C        114.5660   79.7980    3.5730 C.2   166  TYR166      0.2290
     74  O        114.7880   78.8920    4.3800 O.2   166  TYR166     -0.2864
     75  CB       114.8640   78.8090    1.3170 C.3   166  TYR166      0.0560
     76  CG       115.7760   78.5950    0.1280 C.ar  166  TYR166     -0.0198
     77  CD1      115.7690   79.4480   -0.9640 C.ar  166  TYR166     -0.0009
     78  CD2      116.6690   77.5280    0.1050 C.ar  166  TYR166     -0.0009
     79  CE1      116.6100   79.2450   -2.0450 C.ar  166  TYR166      0.0417
     80  CE2      117.5200   77.3150   -0.9640 C.ar  166  TYR166      0.0417
     81  CZ       117.4830   78.1730   -2.0410 C.ar  166  TYR166      0.1957
     82  OH       118.3260   77.9670   -3.1130 O.3   166  TYR166     -0.2866
     83  N        111.4800   73.2980    5.2520 N.3   170  ASN170     -0.1240
     84  CA       112.1930   72.2740    4.4900 C.3   170  ASN170      0.1653
     85  C        112.8670   71.2440    5.3740 C.2   170  ASN170      0.2266
     86  O        113.9470   70.7590    5.0140 O.2   170  ASN170     -0.2867
     87  CB       113.1800   72.9490    3.5390 C.3   170  ASN170      0.1155
     88  CG       114.1980   73.8750    4.1970 C.2   170  ASN170      0.2627
     89  OD1      114.3800   73.9450    5.4220 O.2   170  ASN170     -0.2716
     90  ND2      114.8900   74.6050    3.3220 N.am  170  ASN170     -0.0877
@<TRIPOS>BOND
     1    23    22    2
     2    22    21    1
     3    27    25   ar
     4    24    21    1
     5    24    25    1
     6    21    20    1
     7    25    26   ar
     8    20    11   am
     9    12    11    2
    10    35    33   am
    11    11    10    1
    12    33    32    1
    13    33    34    2
    14    32    29    1
    15    28    29    1
    16    29    30    1
    17    17    15   ar
    18    17    19   ar
    19    15    14   ar
    20    10     9    1
    21    10    13    1
    22    43    42   ar
    23    19    18   ar
    24    14    13    1
    25    14    16   ar
    26    30    31    2
    27    18    16   ar
    28    42    44   ar
    29    42    41    1
    30    40    41    1
    31    40    37    1
    32    36    37    1
    33    37    38    1
    34    38    45   am
    35    38    39    2
    36    45    46    1
    37    82    81    1
    38     7     6    2
    39    49    51    1
    40    49    46    1
    41    49    50    1
    42     4     3    2
    43     3     2    1
    44    46    47    1
    45    79    81   ar
    46    79    77   ar
    47    81    80   ar
    48     6     8   am
    49     6     5    1
    50     2     5    1
    51     2     1    1
    52    77    76   ar
    53    80    78   ar
    54    47    48    2
    55    52    53    1
    56    54    53    1
    57    54    55    2
    58    78    76   ar
    59    76    75    1
    60    69    68    1
    61    69    70    1
    62    68    65    1
    63    75    72    1
    64    67    66    2
    65    66    65    1
    66    66    71   am
    67    70    64    1
    68    72    71    1
    69    72    73    1
    70    65    64    1
    71    90    88   am
    72    87    88    1
    73    87    84    1
    74    73    74    2
    75    63    61    1
    76    88    89    2
    77    61    60    1
    78    84    83    1
    79    84    85    1
    80    86    85    2
    81    56    57    1
    82    60    57    1
    83    60    62    1
    84    57    58    1
    85    58    59    2
