@<TRIPOS>MOLECULE
tmp/1fzdA00.pdb
 96 91 0 0 0
SMALL
GASTEIGER

@<TRIPOS>ATOM
      1  N        -33.3520   18.0910   -1.8630 N.3    17  ASN17      -0.1240
      2  CA       -33.0520   17.2660   -3.0250 C.3    17  ASN17       0.1653
      3  C        -33.9600   17.6990   -4.1810 C.2    17  ASN17       0.2266
      4  O        -34.9540   17.0260   -4.4460 O.2    17  ASN17      -0.2867
      5  CB       -33.2610   15.7580   -2.7030 C.3    17  ASN17       0.1155
      6  CG       -32.6970   14.9060   -3.8220 C.2    17  ASN17       0.2627
      7  OD1      -32.2020   15.4490   -4.8290 O.2    17  ASN17      -0.2716
      8  ND2      -32.7520   13.5780   -3.7160 N.am   17  ASN17      -0.0877
      9  N        -29.4970   17.0840   -9.6280 N.3   119  PHE119     -0.1227
     10  CA       -29.6300   15.7350  -10.1450 C.3   119  PHE119      0.1736
     11  C        -30.0850   15.7290  -11.6120 C.2   119  PHE119      0.2595
     12  O        -29.6540   14.8120  -12.3510 O.2   119  PHE119     -0.2718
     13  CB       -30.5230   14.8880   -9.2330 C.3   119  PHE119      0.0547
     14  CG       -31.9910   15.2370   -9.2970 C.ar  119  PHE119     -0.0202
     15  CD1      -32.7800   14.7500  -10.3500 C.ar  119  PHE119     -0.0042
     16  CD2      -32.6040   15.9620   -8.3030 C.ar  119  PHE119     -0.0042
     17  CE1      -34.1170   15.0660  -10.4130 C.ar  119  PHE119     -0.0003
     18  CE2      -33.9560   16.2570   -8.3800 C.ar  119  PHE119     -0.0003
     19  CZ       -34.7310   15.8020   -9.4170 C.ar  119  PHE119     -0.0000
     20  N        -30.8410   16.7060  -12.0470 N.am  120  ASP120     -0.1974
     21  CA       -31.2670   16.8100  -13.4500 C.3   120  ASP120      0.1709
     22  C        -30.3490   17.6490  -14.3100 C.2   120  ASP120      0.2293
     23  O        -30.5690   17.9350  -15.4820 O.2   120  ASP120     -0.2864
     24  CB       -32.7130   17.3120  -13.5000 C.3   120  ASP120      0.1436
     25  CG       -32.9410   18.6680  -12.8780 C.2   120  ASP120      0.3671
     26  OD1      -32.1080   19.1580  -12.0900 O.co2 120  ASP120     -0.2456
     27  OD2      -33.9640   19.3140  -13.2470 O.co2 120  ASP120     -0.2456
     28  N        -23.1330   10.8490  -11.2540 N.3   129  ASN129     -0.1240
     29  CA       -23.9040   12.0230  -10.8480 C.3   129  ASN129      0.1653
     30  C        -23.7840   12.3720   -9.3690 C.2   129  ASN129      0.2266
     31  O        -24.4950   11.8180   -8.5390 O.2   129  ASN129     -0.2867
     32  CB       -25.3530   11.7410  -11.2500 C.3   129  ASN129      0.1155
     33  CG       -26.2500   12.9690  -11.1290 C.2   129  ASN129      0.2627
     34  OD1      -25.9980   13.9900  -10.4540 O.2   129  ASN129     -0.2716
     35  ND2      -27.2920   13.0060  -11.9720 N.am  129  ASN129     -0.0877
     36  N        -27.0450   13.4740   -7.4580 N.3   132  GLU132     -0.1231
     37  CA       -27.9910   12.4180   -7.2160 C.3   132  GLU132      0.1699
     38  C        -27.7090   11.7210   -5.8570 C.2   132  GLU132      0.2592
     39  O        -28.5610   11.3810   -5.0610 O.2   132  GLU132     -0.2718
     40  CB       -27.8020   11.3560   -8.3080 C.3   132  GLU132      0.0402
     41  CG       -28.8180   10.2340   -8.1650 C.3   132  GLU132      0.1161
     42  CD       -28.3860    8.9490   -8.8390 C.2   132  GLU132      0.3649
     43  OE1      -27.5350    8.9560   -9.7610 O.co2 132  GLU132     -0.2457
     44  OE2      -28.8940    7.8590   -8.4610 O.co2 132  GLU132     -0.2457
     45  N        -26.4440   11.3720   -5.7170 N.am  133  VAL133     -0.1980
     46  CA       -25.8720   10.6160   -4.6220 C.3   133  VAL133      0.1595
     47  C        -25.6530   11.4490   -3.3660 C.2   133  VAL133      0.2287
     48  O        -26.0630   10.9560   -2.2930 O.2   133  VAL133     -0.2864
     49  CB       -24.6080    9.9810   -5.2520 C.3   133  VAL133      0.0276
     50  CG1      -23.3830    9.8480   -4.4120 C.3   133  VAL133      0.0022
     51  CG2      -24.9290    8.6320   -5.8890 C.3   133  VAL133      0.0022
     52  N        -27.2380   14.1660   -2.5080 N.3   135  GLY135     -0.1225
     53  CA       -28.5760   14.5390   -2.0870 C.3   135  GLY135      0.1811
     54  C        -29.0170   15.9600   -2.2330 C.2   135  GLY135      0.2280
     55  O        -30.1700   16.2500   -1.9090 O.2   135  GLY135     -0.2866
     56  N        -27.9940   15.7940    3.2560 N.3   151  ILE151     -0.1245
     57  CA       -29.0650   15.2050    4.1000 C.3   151  ILE151      0.1561
     58  C        -28.9420   15.5610    5.5810 C.2   151  ILE151      0.2260
     59  O        -27.8450   15.4080    6.1440 O.2   151  ILE151     -0.2867
     60  CB       -29.0780   13.6570    3.9810 C.3   151  ILE151      0.0252
     61  CG1      -29.1450   13.2600    2.5080 C.3   151  ILE151      0.0019
     62  CG2      -30.2350   12.9910    4.7600 C.3   151  ILE151      0.0019
     63  CD1      -30.5430   13.3600    1.9140 C.3   151  ILE151      0.0001
     64  N        -29.1190    4.8150    2.7740 N.3   164  SER164     -0.1203
     65  CA       -29.8180    4.2760    1.6050 C.3   164  SER164      0.2005
     66  C        -30.4800    5.4470    0.8850 C.2   164  SER164      0.2461
     67  O        -30.9770    6.3460    1.5550 O.2   164  SER164     -0.2732
     68  CB       -30.8310    3.1990    2.0050 C.3   164  SER164      0.2103
     69  OG       -32.1210    3.7000    2.3260 O.3   164  SER164     -0.2182
     70  N        -30.4990    5.4090   -0.4350 N.am  165  PRO165     -0.2717
     71  CA       -29.9970    4.3060   -1.2180 C.3   165  PRO165      0.1535
     72  C        -28.4950    4.2750   -1.4200 C.2   165  PRO165      0.2598
     73  O        -27.9800    3.4050   -2.1200 O.2   165  PRO165     -0.2715
     74  CB       -30.6470    4.5610   -2.5830 C.3   165  PRO165      0.0310
     75  CG       -30.7340    6.0490   -2.6710 C.3   165  PRO165      0.0237
     76  CD       -31.0980    6.4890   -1.2740 C.3   165  PRO165      0.0939
     77  N        -27.7470    5.2640   -0.9400 N.am  166  TYR166     -0.1974
     78  CA       -26.3010    5.2600   -1.1590 C.3   166  TYR166      0.1639
     79  C        -25.5390    5.3840    0.1580 C.2   166  TYR166      0.2290
     80  O        -25.7460    6.2570    0.9950 O.2   166  TYR166     -0.2864
     81  CB       -25.8640    6.3150   -2.1710 C.3   166  TYR166      0.0560
     82  CG       -26.8660    6.6220   -3.2580 C.ar  166  TYR166     -0.0198
     83  CD1      -27.8330    7.6010   -3.0650 C.ar  166  TYR166     -0.0009
     84  CD2      -26.8770    5.9070   -4.4490 C.ar  166  TYR166     -0.0009
     85  CE1      -28.7810    7.8610   -4.0400 C.ar  166  TYR166      0.0417
     86  CE2      -27.8150    6.1830   -5.4290 C.ar  166  TYR166      0.0417
     87  CZ       -28.7330    7.1870   -5.2410 C.ar  166  TYR166      0.1957
     88  OH       -29.6850    7.4410   -6.2060 O.3   166  TYR166     -0.2866
     89  N        -22.9770   11.6220    2.7450 N.3   170  ASN170     -0.1240
     90  CA       -23.8190   12.6880    2.2470 C.3   170  ASN170      0.1653
     91  C        -24.5870   13.4890    3.2500 C.2   170  ASN170      0.2266
     92  O        -25.6430   14.0380    2.8660 O.2   170  ASN170     -0.2867
     93  CB       -24.7350   12.0980    1.1380 C.3   170  ASN170      0.1155
     94  CG       -25.6960   11.0420    1.6170 C.2   170  ASN170      0.2627
     95  OD1      -25.7790   10.7580    2.8130 O.2   170  ASN170     -0.2716
     96  ND2      -26.4650   10.5030    0.6680 N.am  170  ASN170     -0.0877
@<TRIPOS>BOND
     1    23    22    2
     2    22    21    1
     3    24    21    1
     4    24    25    1
     5    21    20    1
     6    27    25   ar
     7    25    26   ar
     8    12    11    2
     9    20    11   am
    10    35    33   am
    11    11    10    1
    12    28    29    1
    13    32    33    1
    14    32    29    1
    15    33    34    2
    16    29    30    1
    17    17    15   ar
    18    17    19   ar
    19    15    14   ar
    20    10     9    1
    21    10    13    1
    22    43    42   ar
    23    19    18   ar
    24    30    31    2
    25    14    13    1
    26    14    16   ar
    27    42    44   ar
    28    42    41    1
    29    18    16   ar
    30    40    41    1
    31    40    37    1
    32    36    37    1
    33    37    38    1
    34    88    87    1
    35    51    49    1
    36    38    45   am
    37    38    39    2
    38    45    46    1
    39    86    87   ar
    40    86    84   ar
    41    49    46    1
    42    49    50    1
    43    87    85   ar
    44     7     6    2
    45    46    47    1
    46    84    82   ar
    47     4     3    2
    48     3     2    1
    49    85    83   ar
    50     6     8   am
    51     6     5    1
    52    47    48    2
    53    82    83   ar
    54    82    81    1
    55     2     5    1
    56     2     1    1
    57    75    74    1
    58    75    76    1
    59    74    71    1
    60    52    53    1
    61    54    53    1
    62    54    55    2
    63    81    78    1
    64    73    72    2
    65    72    71    1
    66    72    77   am
    67    76    70    1
    68    71    70    1
    69    78    77    1
    70    78    79    1
    71    70    66   am
    72    79    80    2
    73    96    94   am
    74    66    67    2
    75    66    65    1
    76    93    94    1
    77    93    90    1
    78    65    68    1
    79    65    64    1
    80    94    95    2
    81    63    61    1
    82    68    69    1
    83    90    89    1
    84    90    91    1
    85    61    60    1
    86    92    91    2
    87    56    57    1
    88    60    57    1
    89    60    62    1
    90    57    58    1
    91    58    59    2
