@<TRIPOS>MOLECULE
tmp/1fzkB01.pdb
 102 106 0 0 0
SMALL
GASTEIGER

@<TRIPOS>ATOM
      1  N         44.2150   25.4980    9.3970 N.3    10  TYR10      -0.1227
      2  CA        45.4210   25.1610   10.1640 C.3    10  TYR10       0.1736
      3  C         45.5560   25.9300   11.4830 C.2    10  TYR10       0.2596
      4  O         45.0210   27.0300   11.6240 O.2    10  TYR10      -0.2718
      5  CB        46.6630   25.4500    9.3030 C.3    10  TYR10       0.0548
      6  CG        46.6570   26.8400    8.6680 C.ar   10  TYR10      -0.0200
      7  CD1       45.9670   27.0840    7.4790 C.ar   10  TYR10      -0.0009
      8  CD2       47.3240   27.9100    9.2720 C.ar   10  TYR10      -0.0009
      9  CE1       45.9390   28.3690    6.8980 C.ar   10  TYR10       0.0417
     10  CE2       47.3000   29.1990    8.7020 C.ar   10  TYR10       0.0417
     11  CZ        46.6080   29.4120    7.5180 C.ar   10  TYR10       0.1957
     12  OH        46.5870   30.6760    6.9510 O.3    10  TYR10      -0.2866
     13  N         46.2790   25.3570   12.4450 N.am   11  SER11      -0.1938
     14  CA        46.4920   26.0330   13.7260 C.3    11  SER11       0.2055
     15  C         47.8540   26.7330   13.7400 C.2    11  SER11       0.2643
     16  O         48.7520   26.3910   12.9560 O.2    11  SER11      -0.2714
     17  CB        46.3990   25.0380   14.8950 C.3    11  SER11       0.2130
     18  OG        47.3500   23.9920   14.7690 O.3    11  SER11      -0.2179
     19  N         47.9980   27.7210   14.6230 N.am   12  ARG12      -0.1963
     20  CA        49.2450   28.4830   14.7550 C.3    12  ARG12       0.1729
     21  C         50.3740   27.6490   15.3550 C.2    12  ARG12       0.2616
     22  O         51.5130   27.6940   14.8820 O.2    12  ARG12      -0.2715
     23  CB        49.0050   29.7310   15.6170 C.3    12  ARG12       0.0348
     24  CG        50.2710   30.3480   16.2400 C.3    12  ARG12       0.0492
     25  CD        51.1680   31.0290   15.2130 C.3    12  ARG12       0.2205
     26  NE        52.3620   31.5980   15.8390 N.pl3  12  ARG12      -0.0865
     27  CZ        53.4820   30.9240   16.0830 C.cat  12  ARG12       0.5346
     28  NH1       53.5780   29.6420   15.7470 N.pl3  12  ARG12       0.1354
     29  NH2       54.5090   31.5300   16.6730 N.pl3  12  ARG12       0.1354
     30  N         50.0490   26.8950   16.4040 N.am   13  HIS13      -0.1960
     31  CA        51.0190   26.0400   17.0870 C.3    13  HIS13       0.1772
     32  C         50.6180   24.5860   16.9090 C.2    13  HIS13       0.2462
     33  O         49.4470   24.2810   16.6720 O.2    13  HIS13      -0.2730
     34  CB        51.0250   26.3170   18.5960 C.3    13  HIS13       0.0785
     35  CG        51.3710   27.7250   18.9640 C.ar   13  HIS13       0.0821
     36  ND1       52.6570   28.2190   18.9030 N.ar   13  HIS13      -0.2267
     37  CD2       50.5990   28.7400   19.4150 C.ar   13  HIS13       0.1154
     38  CE1       52.6610   29.4770   19.3010 C.ar   13  HIS13       0.1986
     39  NE2       51.4240   29.8190   19.6170 N.ar   13  HIS13      -0.2212
     40  N         51.5860   23.6650   17.0030 N.am   14  PRO14      -0.2716
     41  CA        51.2080   22.2570   16.8570 C.3    14  PRO14       0.1521
     42  C         50.1740   22.0300   17.9620 C.2    14  PRO14       0.2440
     43  O         50.3360   22.5210   19.0800 O.2    14  PRO14      -0.2731
     44  CB        52.5220   21.5270   17.1150 C.3    14  PRO14       0.0310
     45  CG        53.5320   22.4790   16.5410 C.3    14  PRO14       0.0237
     46  CD        53.0500   23.8160   17.0680 C.3    14  PRO14       0.0939
     47  N         49.0950   21.2960   17.6680 N.am   15  PRO15      -0.2727
     48  CA        48.0710   21.0660   18.6900 C.3    15  PRO15       0.1402
     49  C         48.4560   20.2140   19.9020 C.2    15  PRO15       0.2269
     50  O         49.0870   19.1650   19.7710 O.2    15  PRO15      -0.2865
     51  CB        46.9240   20.4550   17.8880 C.3    15  PRO15       0.0296
     52  CG        47.6500   19.6710   16.8360 C.3    15  PRO15       0.0237
     53  CD        48.7440   20.6260   16.4030 C.3    15  PRO15       0.0939
     54  N         39.4710   20.6910    9.8780 N.3    95  TRP95      -0.1227
     55  CA        40.8280   20.8350   10.3870 C.3    95  TRP95       0.1737
     56  C         41.3540   19.4080   10.5630 C.2    95  TRP95       0.2595
     57  O         40.7160   18.5910   11.2260 O.2    95  TRP95      -0.2718
     58  CB        40.8140   21.5530   11.7490 C.3    95  TRP95       0.0564
     59  CG        42.1510   21.6190   12.4530 C.ar   95  TRP95       0.0003
     60  CD1       43.3470   22.0010   11.9120 C.ar   95  TRP95       0.0946
     61  CD2       42.4100   21.3460   13.8410 C.ar   95  TRP95       0.0152
     62  NE1       44.3320   21.9830   12.8730 N.ar   95  TRP95      -0.2442
     63  CE2       43.7860   21.5870   14.0650 C.ar   95  TRP95       0.0810
     64  CE3       41.6130   20.9220   14.9140 C.ar   95  TRP95       0.0012
     65  CZ2       44.3850   21.4190   15.3220 C.ar   95  TRP95       0.0191
     66  CZ3       42.2090   20.7540   16.1680 C.ar   95  TRP95       0.0001
     67  CH2       43.5830   21.0030   16.3590 C.ar   95  TRP95       0.0015
     68  N         42.4940   19.1190    9.9440 N.am   96  ASP96      -0.1960
     69  CA        43.1430   17.8080   10.0330 C.3    96  ASP96       0.1840
     70  C         44.3730   18.0120   10.9050 C.2    96  ASP96       0.2622
     71  O         45.4120   18.4750   10.4330 O.2    96  ASP96      -0.2715
     72  CB        43.5530   17.3330    8.6350 C.3    96  ASP96       0.1450
     73  CG        44.3270   16.0240    8.6560 C.2    96  ASP96       0.3671
     74  OD1       44.5690   15.4780    9.7510 O.co2  96  ASP96      -0.2456
     75  OD2       44.6950   15.5480    7.5620 O.co2  96  ASP96      -0.2456
     76  N         44.2570   17.6700   12.1830 N.am   97  ARG97      -0.1963
     77  CA        45.3660   17.8750   13.1080 C.3    97  ARG97       0.1729
     78  C         46.5880   16.9850   12.8930 C.2    97  ARG97       0.2616
     79  O         47.6120   17.1770   13.5440 O.2    97  ARG97      -0.2715
     80  CB        44.8700   17.7600   14.5550 C.3    97  ARG97       0.0348
     81  CG        44.2330   16.4340   14.9290 C.3    97  ARG97       0.0492
     82  CD        43.5680   16.5460   16.3030 C.3    97  ARG97       0.2205
     83  NE        44.5340   16.7940   17.3740 N.pl3  97  ARG97      -0.0865
     84  CZ        44.2040   17.1910   18.6000 C.cat  97  ARG97       0.5346
     85  NH1       42.9310   17.3920   18.9150 N.pl3  97  ARG97       0.1354
     86  NH2       45.1460   17.3770   19.5180 N.pl3  97  ARG97       0.1354
     87  N         46.4960   16.0270   11.9750 N.am   98  ASP98      -0.1957
     88  CA        47.6280   15.1360   11.7070 C.3    98  ASP98       0.1840
     89  C         48.3470   15.4630   10.4020 C.2    98  ASP98       0.2621
     90  O         49.3160   14.7980   10.0420 O.2    98  ASP98      -0.2715
     91  CB        47.1710   13.6710   11.6400 C.3    98  ASP98       0.1450
     92  CG        46.5880   13.1730   12.9460 C.2    98  ASP98       0.3671
     93  OD1       47.1840   13.4370   14.0120 O.co2  98  ASP98      -0.2456
     94  OD2       45.5360   12.4990   12.9000 O.co2  98  ASP98      -0.2456
     95  N         47.8780   16.4830    9.6920 N.am   99  MET99      -0.1977
     96  CA        48.4820   16.8590    8.4190 C.3    99  MET99       0.1605
     97  C         49.9830   17.1410    8.5050 C.2    99  MET99       0.2287
     98  O         50.7130   16.6850    7.5950 O.2    99  MET99      -0.2864
     99  CB        47.7600   18.0750    7.8410 C.3    99  MET99       0.0413
    100  CG        48.1320   18.3770    6.4070 C.3    99  MET99       0.0598
    101  SD        47.1720   19.7530    5.7500 S.3    99  MET99      -0.1393
    102  CE        47.7800   19.8090    4.1000 C.3    99  MET99       0.0692
@<TRIPOS>BOND
     1   102   101    1
     2   101   100    1
     3   100    99    1
     4     9     7   ar
     5     9    11   ar
     6    12    11    1
     7     7     6   ar
     8    11    10   ar
     9    75    73   ar
    10    98    97    2
    11    99    96    1
    12    96    97    1
    13    96    95    1
    14    72    73    1
    15    72    69    1
    16    73    74   ar
    17     6     8   ar
    18     6     5    1
    19    10     8   ar
    20     5     2    1
    21     1     2    1
    22    95    89   am
    23    54    55    1
    24    68    69    1
    25    68    56   am
    26    69    70    1
    27    90    89    2
    28     2     3    1
    29    55    56    1
    30    55    58    1
    31    89    88    1
    32    71    70    2
    33    56    57    2
    34    70    76   am
    35     3     4    2
    36     3    13   am
    37    91    88    1
    38    91    92    1
    39    88    87    1
    40    58    59    1
    41    60    59   ar
    42    60    62   ar
    43    87    78   am
    44    76    77    1
    45    13    14    1
    46    59    61   ar
    47    62    63   ar
    48    78    77    1
    49    78    79    2
    50    94    92   ar
    51    92    93   ar
    52    16    15    2
    53    77    80    1
    54    14    15    1
    55    14    17    1
    56    15    19   am
    57    61    63   ar
    58    61    64   ar
    59    63    65   ar
    60    80    81    1
    61    19    20    1
    62    20    21    1
    63    20    23    1
    64    18    17    1
    65    22    21    2
    66    64    66   ar
    67    81    82    1
    68    25    26    1
    69    25    24    1
    70    65    67   ar
    71    21    30   am
    72    23    24    1
    73    28    27    1
    74    26    27    2
    75    27    29    1
    76    66    67   ar
    77    82    83    1
    78    53    52    1
    79    53    47    1
    80    30    31    1
    81    45    46    1
    82    45    44    1
    83    33    32    2
    84    52    51    1
    85    41    40    1
    86    41    44    1
    87    41    42    1
    88    32    40   am
    89    32    31    1
    90    40    46    1
    91    31    34    1
    92    83    84    2
    93    47    42   am
    94    47    48    1
    95    51    48    1
    96    42    43    2
    97    34    35    1
    98    84    85    1
    99    84    86    1
   100    48    49    1
   101    36    35   ar
   102    36    38   ar
   103    35    37   ar
   104    38    39   ar
   105    37    39   ar
   106    50    49    2
