@<TRIPOS>MOLECULE
tmp/1fzzA00.pdb
 152 146 0 0 0
SMALL
GASTEIGER

@<TRIPOS>ATOM
      1  N         -0.6810   25.8900   32.7000 N.3    29  THR29      -0.1203
      2  CA        -1.6930   24.8880   32.9910 C.3    29  THR29       0.1994
      3  C         -2.3890   25.1400   34.3290 C.2    29  THR29       0.2618
      4  O         -3.5660   24.8140   34.4950 O.2    29  THR29      -0.2717
      5  CB        -1.0930   23.4560   32.9890 C.3    29  THR29       0.1784
      6  OG1       -2.1460   22.4960   33.1570 O.3    29  THR29      -0.2211
      7  CG2       -0.0730   23.2920   34.1040 C.3    29  THR29       0.0376
      8  N         -1.6630   25.7360   35.2690 N.am   30  CYS30      -0.1969
      9  CA        -2.2030   26.0030   36.5960 C.3    30  CYS30       0.1712
     10  C         -1.5200   27.1920   37.2540 C.2    30  CYS30       0.2296
     11  O         -0.5050   27.6960   36.7710 O.2    30  CYS30      -0.2864
     12  CB        -2.0060   24.7790   37.5000 C.3    30  CYS30       0.0983
     13  SG        -3.2090   23.4260   37.3110 S.3    30  CYS30      -0.0798
     14  N         -3.9320   17.9020   41.9600 N.3    45  HIS45      -0.1241
     15  CA        -4.4280   17.5210   40.6430 C.3    45  HIS45       0.1621
     16  C         -3.7500   18.2420   39.4660 C.2    45  HIS45       0.2264
     17  O         -3.9420   17.8580   38.3130 O.2    45  HIS45      -0.2867
     18  CB        -5.9610   17.6770   40.5760 C.3    45  HIS45       0.0745
     19  CG        -6.4330   19.0710   40.2830 C.ar   45  HIS45       0.0817
     20  ND1       -6.9850   19.8860   41.2490 N.ar   45  HIS45      -0.2268
     21  CD2       -6.4800   19.7790   39.1270 C.ar   45  HIS45       0.1154
     22  CE1       -7.3510   21.0330   40.7030 C.ar   45  HIS45       0.1986
     23  NE2       -7.0560   20.9930   39.4160 N.ar   45  HIS45      -0.2212
     24  N         -0.5080   15.8700   38.7510 N.3    48  ASP48      -0.1225
     25  CA        -0.8380   14.4520   38.7070 C.3    48  ASP48       0.1805
     26  C         -0.3430   13.7740   37.4300 C.2    48  ASP48       0.2597
     27  O         -0.2490   12.5510   37.3720 O.2    48  ASP48      -0.2718
     28  CB        -2.3540   14.2750   38.8180 C.3    48  ASP48       0.1424
     29  CG        -2.7710   13.6340   40.1250 C.2    48  ASP48       0.3668
     30  OD1       -1.8810   13.2000   40.8850 O.co2  48  ASP48      -0.2456
     31  OD2       -3.9880   13.5610   40.3930 O.co2  48  ASP48      -0.2456
     32  N         -0.0280   14.5630   36.4090 N.am   49  ARG49      -0.1979
     33  CA         0.4330   14.0010   35.1460 C.3    49  ARG49       0.1597
     34  C          1.9490   13.8730   35.0780 C.2    49  ARG49       0.2287
     35  O          2.6770   14.6090   35.7440 O.2    49  ARG49      -0.2864
     36  CB        -0.0620   14.8580   33.9800 C.3    49  ARG49       0.0334
     37  CG        -0.8700   16.0710   34.4080 C.3    49  ARG49       0.0492
     38  CD        -1.7700   16.5950   33.2860 C.3    49  ARG49       0.2205
     39  NE        -1.9550   18.0500   33.3150 N.pl3  49  ARG49      -0.0865
     40  CZ        -1.8870   18.8080   34.4080 C.cat  49  ARG49       0.5346
     41  NH1       -1.6340   18.2660   35.5900 N.pl3  49  ARG49       0.1354
     42  NH2       -2.0830   20.1170   34.3210 N.pl3  49  ARG49       0.1354
     43  N         -3.8690   12.2020   48.9220 N.3    83  TRP83      -0.1241
     44  CA        -4.4820   12.6430   47.6690 C.3    83  TRP83       0.1605
     45  C         -4.8350   11.4480   46.7910 C.2    83  TRP83       0.2264
     46  O         -4.0150   10.5580   46.5730 O.2    83  TRP83      -0.2867
     47  CB        -3.5490   13.5750   46.8900 C.3    83  TRP83       0.0550
     48  CG        -4.0000   13.7950   45.4620 C.ar   83  TRP83       0.0003
     49  CD1       -3.3590   13.3850   44.3270 C.ar   83  TRP83       0.0946
     50  CD2       -5.1960   14.4600   45.0270 C.ar   83  TRP83       0.0152
     51  NE1       -4.0790   13.7500   43.2140 N.ar   83  TRP83      -0.2442
     52  CE2       -5.2100   14.4120   43.6150 C.ar   83  TRP83       0.0810
     53  CE3       -6.2550   15.0910   45.6930 C.ar   83  TRP83       0.0012
     54  CZ2       -6.2420   14.9710   42.8560 C.ar   83  TRP83       0.0191
     55  CZ3       -7.2810   15.6470   44.9400 C.ar   83  TRP83       0.0001
     56  CH2       -7.2670   15.5820   43.5340 C.ar   83  TRP83       0.0015
     57  N         -7.8630   12.1400   40.4810 N.3    86  ASP86      -0.1239
     58  CA        -9.1970   12.3530   39.9200 C.3    86  ASP86       0.1674
     59  C        -10.3180   12.4870   40.9580 C.2    86  ASP86       0.2266
     60  O        -11.4430   12.8520   40.6100 O.2    86  ASP86      -0.2867
     61  CB        -9.5440   11.2120   38.9490 C.3    86  ASP86       0.1410
     62  CG        -8.8810   11.3720   37.5800 C.2    86  ASP86       0.3668
     63  OD1       -8.5690   10.3370   36.9460 O.co2  86  ASP86      -0.2456
     64  OD2       -8.6760   12.5240   37.1350 O.co2  86  ASP86      -0.2456
     65  N        -11.1890   14.6790   43.4290 N.3    88  VAL88      -0.1245
     66  CA       -11.1000   15.9980   44.0290 C.3    88  VAL88       0.1561
     67  C        -12.0830   16.2380   45.1880 C.2    88  VAL88       0.2260
     68  O        -11.7960   17.0070   46.1020 O.2    88  VAL88      -0.2867
     69  CB       -11.2550   17.0800   42.9120 C.3    88  VAL88       0.0252
     70  CG1      -12.7210   17.3420   42.6100 C.3    88  VAL88       0.0019
     71  CG2      -10.5390   18.3460   43.3170 C.3    88  VAL88       0.0019
     72  N         -8.0680   31.1320   27.9260 N.3   141  LEU141     -0.1245
     73  CA        -7.2180   31.6770   28.9810 C.3   141  LEU141      0.1561
     74  C         -7.0590   33.1810   28.8470 C.2   141  LEU141      0.2260
     75  O         -7.1660   33.7240   27.7450 O.2   141  LEU141     -0.2867
     76  CB        -5.8300   31.0510   28.9090 C.3   141  LEU141      0.0270
     77  CG        -5.7060   29.5510   29.1330 C.3   141  LEU141      0.0019
     78  CD1       -4.2430   29.1520   29.0090 C.3   141  LEU141      0.0001
     79  CD2       -6.2510   29.1870   30.5030 C.3   141  LEU141      0.0001
     80  N        -12.0330   29.4190   37.0850 N.3   184  CYS184     -0.1221
     81  CA       -12.3400   28.6530   35.8780 C.3   184  CYS184      0.1808
     82  C        -11.0770   27.8970   35.4740 C.2   184  CYS184      0.2601
     83  O         -9.9860   28.1980   35.9730 O.2   184  CYS184     -0.2717
     84  CB       -12.8090   29.5900   34.7580 C.3   184  CYS184      0.0970
     85  SG       -13.9690   28.8810   33.5340 S.3   184  CYS184     -0.0800
     86  N        -11.2200   26.9210   34.5800 N.am  185  GLN185     -0.1965
     87  CA       -10.0850   26.1070   34.1340 C.3   185  GLN185      0.1733
     88  C         -8.8250   26.9140   33.8630 C.2   185  GLN185      0.2616
     89  O         -8.8230   27.8230   33.0330 O.2   185  GLN185     -0.2715
     90  CB       -10.4720   25.3100   32.8900 C.3   185  GLN185      0.0408
     91  CG       -11.2280   24.0260   33.2120 C.3   185  GLN185      0.0908
     92  CD       -12.6780   24.2770   33.5800 C.2   185  GLN185      0.2608
     93  OE1      -13.2230   25.3560   33.3210 O.2   185  GLN185     -0.2717
     94  NE2      -13.3110   23.2840   34.1890 N.am  185  GLN185     -0.0878
     95  N         -7.7560   26.5750   34.5780 N.am  186  GLY186     -0.1955
     96  CA        -6.4960   27.2740   34.4160 C.3   186  GLY186      0.1869
     97  C         -6.1390   28.0880   35.6460 C.2   186  GLY186      0.2309
     98  O         -4.9960   28.5370   35.7900 O.2   186  GLY186     -0.2863
     99  N         -6.7450   26.7900   38.6660 N.3   188  SER188     -0.1217
    100  CA        -6.4090   25.7350   39.6200 C.3   188  SER188      0.1889
    101  C         -5.0220   25.8370   40.2250 C.2   188  SER188      0.2288
    102  O         -4.0580   26.1800   39.5430 O.2   188  SER188     -0.2866
    103  CB        -6.5610   24.3720   38.9430 C.3   188  SER188      0.2089
    104  OG        -7.9340   24.0920   38.8290 O.3   188  SER188     -0.2183
    105  N         -7.0110   27.0570   44.8430 N.3   206  THR206     -0.1203
    106  CA        -8.1300   26.7660   43.9380 C.3   206  THR206      0.1994
    107  C         -8.1750   25.2950   43.5250 C.2   206  THR206      0.2619
    108  O         -7.1920   24.7430   43.0300 O.2   206  THR206     -0.2717
    109  CB        -8.0830   27.6710   42.6900 C.3   206  THR206      0.1784
    110  OG1       -7.7870   29.0150   43.0910 O.3   206  THR206     -0.2211
    111  CG2       -9.4230   27.6660   41.9780 C.3   206  THR206      0.0376
    112  N         -9.3250   24.6610   43.7390 N.am  207  SER207     -0.1937
    113  CA        -9.4790   23.2450   43.4320 C.3   207  SER207      0.2055
    114  C        -10.4830   22.8950   42.3310 C.2   207  SER207      0.2643
    115  O        -10.0920   22.4220   41.2670 O.2   207  SER207     -0.2714
    116  CB        -9.8480   22.4840   44.7090 C.3   207  SER207      0.2130
    117  OG        -9.8150   21.0800   44.4990 O.3   207  SER207     -0.2179
    118  N        -11.7700   23.1160   42.5810 N.am  208  PHE208     -0.1959
    119  CA       -12.7710   22.7700   41.5860 C.3   208  PHE208      0.1771
    120  C        -14.0250   23.6430   41.5340 C.2   208  PHE208      0.2619
    121  O        -14.3000   24.4260   42.4450 O.2   208  PHE208     -0.2715
    122  CB       -13.1790   21.2990   41.7730 C.3   208  PHE208      0.0574
    123  CG       -13.8990   21.0150   43.0700 C.ar  208  PHE208     -0.0200
    124  CD1      -15.2860   21.1020   43.1490 C.ar  208  PHE208     -0.0042
    125  CD2      -13.1920   20.6160   44.2020 C.ar  208  PHE208     -0.0042
    126  CE1      -15.9610   20.7910   44.3390 C.ar  208  PHE208     -0.0003
    127  CE2      -13.8580   20.3010   45.3980 C.ar  208  PHE208     -0.0003
    128  CZ       -15.2410   20.3890   45.4650 C.ar  208  PHE208     -0.0000
    129  N        -14.7720   23.4990   40.4400 N.am  209  VAL209     -0.1963
    130  CA       -16.0280   24.2130   40.2260 C.3   209  VAL209      0.1727
    131  C        -17.0760   23.1840   39.7880 C.2   209  VAL209      0.2617
    132  O        -16.7870   21.9950   39.6830 O.2   209  VAL209     -0.2715
    133  CB       -15.9090   25.3290   39.1290 C.3   209  VAL209      0.0290
    134  CG1      -14.8430   26.3470   39.5270 C.3   209  VAL209      0.0023
    135  CG2      -15.5930   24.7140   37.7620 C.3   209  VAL209      0.0023
    136  N        -18.2930   23.6410   39.5300 N.am  210  SER210     -0.1936
    137  CA       -19.3600   22.7420   39.1160 C.3   210  SER210      0.2055
    138  C        -19.1290   22.1660   37.7180 C.2   210  SER210      0.2642
    139  O        -18.5380   22.8090   36.8460 O.2   210  SER210     -0.2714
    140  CB       -20.7010   23.4780   39.1580 C.3   210  SER210      0.2130
    141  OG       -21.6830   22.7970   38.4000 O.3   210  SER210     -0.2179
    142  N        -19.5950   20.9380   37.5130 N.am  211  ARG211     -0.1977
    143  CA       -19.4590   20.2790   36.2200 C.3   211  ARG211      0.1597
    144  C        -20.2960   21.0240   35.1880 C.2   211  ARG211      0.2287
    145  O        -20.0200   20.9690   33.9940 O.2   211  ARG211     -0.2864
    146  CB       -19.9340   18.8280   36.3180 C.3   211  ARG211      0.0334
    147  CG       -18.8390   17.8540   36.7090 C.3   211  ARG211      0.0492
    148  CD       -19.3200   16.4070   36.6740 C.3   211  ARG211      0.2205
    149  NE       -18.5950   15.5820   37.6380 N.pl3 211  ARG211     -0.0865
    150  CZ       -19.1760   14.7990   38.5430 C.cat 211  ARG211      0.5346
    151  NH1      -20.4990   14.7280   38.6110 N.pl3 211  ARG211      0.1354
    152  NH2      -18.4330   14.0900   39.3830 N.pl3 211  ARG211      0.1354
@<TRIPOS>BOND
     1    75    74    2
     2    72    73    1
     3    74    73    1
     4    76    73    1
     5    76    77    1
     6    78    77    1
     7    77    79    1
     8     1     2    1
     9    90    91    1
    10    90    87    1
    11     5     2    1
    12     5     6    1
    13     5     7    1
    14     2     3    1
    15    89    88    2
    16    91    92    1
    17    38    39    1
    18    38    37    1
    19    39    40    2
    20    93    92    2
    21    85    84    1
    22    92    94   am
    23    88    87    1
    24    88    95   am
    25    36    37    1
    26    36    33    1
    27   145   144    2
    28    87    86    1
    29    42    40    1
    30     3     4    2
    31     3     8   am
    32    40    41    1
    33    96    95    1
    34    96    97    1
    35    86    82   am
    36    84    81    1
    37    34    33    1
    38    34    35    2
    39    33    32    1
    40   144   143    1
    41     8     9    1
    42    82    81    1
    43    82    83    2
    44    97    98    2
    45    81    80    1
    46   143   146    1
    47   143   142    1
    48   146   147    1
    49    32    26   am
    50     9    10    1
    51     9    12    1
    52   148   147    1
    53   148   149    1
    54    11    10    2
    55   139   138    2
    56    63    62   ar
    57    64    62   ar
    58    13    12    1
    59    27    26    2
    60    26    25    1
    61   142   138   am
    62    62    61    1
    63   149   150    2
    64   138   137    1
    65   135   133    1
    66    17    16    2
    67   141   140    1
    68   150   151    1
    69   150   152    1
    70    99   100    1
    71    25    24    1
    72    25    28    1
    73    28    29    1
    74   104   103    1
    75   103   100    1
    76    61    58    1
    77   137   140    1
    78   137   136    1
    79    21    23   ar
    80    21    19   ar
    81   133   134    1
    82   133   130    1
    83    23    22   ar
    84    16    15    1
    85   136   131   am
    86   102   101    2
    87   100   101    1
    88   132   131    2
    89   131   130    1
    90    58    57    1
    91    58    59    1
    92    29    31   ar
    93    29    30   ar
    94   130   129    1
    95    19    18    1
    96    19    20   ar
    97   129   120   am
    98    18    15    1
    99    60    59    2
   100    15    14    1
   101    22    20   ar
   102   115   114    2
   103   120   119    1
   104   120   121    2
   105   119   122    1
   106   119   118    1
   107   122   123    1
   108   111   109    1
   109   114   118   am
   110   114   113    1
   111    70    69    1
   112   109   110    1
   113   109   106    1
   114    54    56   ar
   115    54    52   ar
   116    69    71    1
   117    69    66    1
   118   108   107    2
   119   123   124   ar
   120   123   125   ar
   121   124   126   ar
   122    51    52   ar
   123    51    49   ar
   124    65    66    1
   125   113   112    1
   126   113   116    1
   127   107   112   am
   128   107   106    1
   129    56    55   ar
   130    52    50   ar
   131   106   105    1
   132    66    67    1
   133   125   127   ar
   134    49    48   ar
   135   126   128   ar
   136   117   116    1
   137    55    53   ar
   138    50    48   ar
   139    50    53   ar
   140    67    68    2
   141   127   128   ar
   142    48    47    1
   143    46    45    2
   144    45    44    1
   145    47    44    1
   146    44    43    1
