@<TRIPOS>MOLECULE
tmp/1g0cA00.pdb
 135 132 0 0 0
SMALL
GASTEIGER

@<TRIPOS>ATOM
      1  N         14.0710   45.6340   34.0700 N.3    43  HIS43      -0.1241
      2  CA        12.7430   45.3010   34.5580 C.3    43  HIS43       0.1621
      3  C         13.0520   44.4390   35.8210 C.2    43  HIS43       0.2264
      4  O         14.1810   44.4830   36.3420 O.2    43  HIS43      -0.2867
      5  CB        12.0520   44.5300   33.4680 C.3    43  HIS43       0.0745
      6  CG        10.5280   44.4760   33.5200 C.ar   43  HIS43       0.0817
      7  ND1        9.7160   45.2310   32.7890 N.ar   43  HIS43      -0.2268
      8  CD2        9.7300   43.6000   34.2320 C.ar   43  HIS43       0.1154
      9  CE1        8.4970   44.8400   33.0120 C.ar   43  HIS43       0.1986
     10  NE2        8.5050   43.8650   33.8760 N.ar   43  HIS43      -0.2212
     11  N         12.5240   38.2180   36.1890 N.3    47  TRP47      -0.1227
     12  CA        11.7650   37.9870   34.9640 C.3    47  TRP47       0.1737
     13  C         12.6050   38.3070   33.7230 C.2    47  TRP47       0.2595
     14  O         12.4460   37.6980   32.6600 O.2    47  TRP47      -0.2718
     15  CB        10.4970   38.8780   34.9540 C.3    47  TRP47       0.0564
     16  CG         9.4160   38.6920   36.0370 C.ar   47  TRP47       0.0003
     17  CD1        8.9750   37.4550   36.4340 C.ar   47  TRP47       0.0946
     18  CD2        8.7510   39.7050   36.7060 C.ar   47  TRP47       0.0152
     19  NE1        8.0360   37.6800   37.3360 N.ar   47  TRP47      -0.2442
     20  CE2        7.8660   38.9870   37.5340 C.ar   47  TRP47       0.0810
     21  CE3        8.7490   41.1070   36.7410 C.ar   47  TRP47       0.0012
     22  CZ2        6.9760   39.6330   38.3990 C.ar   47  TRP47       0.0191
     23  CZ3        7.8520   41.7580   37.6050 C.ar   47  TRP47       0.0001
     24  CH2        6.9810   41.0220   38.4250 C.ar   47  TRP47       0.0015
     25  N         13.4800   39.3240   33.8160 N.am   48  PHE48      -0.1976
     26  CA        14.2630   39.8170   32.6870 C.3    48  PHE48       0.1639
     27  C         15.7230   40.1190   33.0260 C.2    48  PHE48       0.2290
     28  O         16.3710   41.0550   32.5210 O.2    48  PHE48      -0.2864
     29  CB        13.5900   41.0830   32.1190 C.3    48  PHE48       0.0560
     30  CG        12.2180   40.7860   31.5360 C.ar   48  PHE48      -0.0200
     31  CD1       12.1140   40.1240   30.3100 C.ar   48  PHE48      -0.0042
     32  CD2       11.0650   41.1020   32.2500 C.ar   48  PHE48      -0.0042
     33  CE1       10.8650   39.7700   29.8010 C.ar   48  PHE48      -0.0003
     34  CE2        9.8190   40.7530   31.7470 C.ar   48  PHE48      -0.0003
     35  CZ         9.7180   40.0840   30.5230 C.ar   48  PHE48      -0.0000
     36  N         13.1410   43.1420   42.6230 N.3    74  TYR74      -0.1241
     37  CA        11.8620   42.8980   43.2890 C.3    74  TYR74       0.1605
     38  C         12.0760   41.9030   44.4310 C.2    74  TYR74       0.2264
     39  O         12.9440   41.0260   44.3560 O.2    74  TYR74      -0.2867
     40  CB        10.8180   42.2380   42.4000 C.3    74  TYR74       0.0534
     41  CG        10.0780   43.1130   41.3860 C.ar   74  TYR74      -0.0201
     42  CD1       10.7440   43.6360   40.2680 C.ar   74  TYR74      -0.0009
     43  CD2        8.7000   43.3210   41.5390 C.ar   74  TYR74      -0.0009
     44  CE1       10.0180   44.3510   39.2970 C.ar   74  TYR74       0.0417
     45  CE2        7.9840   44.0290   40.5700 C.ar   74  TYR74       0.0417
     46  CZ         8.6470   44.5340   39.4580 C.ar   74  TYR74       0.1957
     47  OH         7.9300   45.1610   38.4590 O.3    74  TYR74      -0.2866
     48  N          6.4280   39.3070   44.3820 N.3    77  GLU77      -0.1245
     49  CA         6.2380   38.9680   42.9670 C.3    77  GLU77       0.1567
     50  C          7.3190   38.0440   42.4010 C.2    77  GLU77       0.2260
     51  O          7.9120   38.2420   41.3310 O.2    77  GLU77      -0.2867
     52  CB         6.1670   40.2770   42.1830 C.3    77  GLU77       0.0388
     53  CG         4.8680   41.0200   42.4420 C.3    77  GLU77       0.1160
     54  CD         4.8520   42.3880   41.7830 C.2    77  GLU77       0.3649
     55  OE1        4.3110   42.5180   40.6850 O.co2  77  GLU77      -0.2457
     56  OE2        5.3980   43.3280   42.3640 O.co2  77  GLU77      -0.2457
     57  N         13.4800   46.9160   45.2150 N.3   109  HIS109     -0.1241
     58  CA        12.2860   47.3200   44.5020 C.3   109  HIS109      0.1621
     59  C         10.9380   47.0470   45.1650 C.2   109  HIS109      0.2264
     60  O         10.1220   46.2790   44.6520 O.2   109  HIS109     -0.2867
     61  CB        12.3530   46.6890   43.1020 C.3   109  HIS109      0.0745
     62  CG        11.5160   47.3620   42.0100 C.ar  109  HIS109      0.0817
     63  ND1       11.8610   48.3630   41.2020 N.ar  109  HIS109     -0.2268
     64  CD2       10.2400   46.9900   41.6430 C.ar  109  HIS109      0.1154
     65  CE1       10.8740   48.5980   40.3760 C.ar  109  HIS109      0.1986
     66  NE2        9.9060   47.7700   40.6470 N.ar  109  HIS109     -0.2212
     67  N          7.2400   47.3410   45.9720 N.3   111  HIS111     -0.1241
     68  CA         6.2100   47.4650   44.9790 C.3   111  HIS111      0.1621
     69  C          4.8980   46.8320   45.4390 C.2   111  HIS111      0.2264
     70  O          3.9100   47.5120   45.7080 O.2   111  HIS111     -0.2867
     71  CB         6.7670   46.8110   43.7370 C.3   111  HIS111      0.0745
     72  CG         5.8260   46.9000   42.5700 C.ar  111  HIS111      0.0817
     73  ND1        4.8890   46.0450   42.2360 N.ar  111  HIS111     -0.2268
     74  CD2        5.8990   47.8600   41.6000 C.ar  111  HIS111      0.1154
     75  CE1        4.4210   46.4450   41.0930 C.ar  111  HIS111      0.1986
     76  NE2        5.0320   47.5460   40.6600 N.ar  111  HIS111     -0.2212
     77  N          5.1040   58.9170   34.7310 N.3   222  TYR222     -0.1241
     78  CA         4.8800   58.2070   33.4910 C.3   222  TYR222      0.1605
     79  C          4.1760   59.2990   32.7310 C.2   222  TYR222      0.2264
     80  O          3.1730   59.8330   33.2430 O.2   222  TYR222     -0.2867
     81  CB         3.9800   57.0100   33.7390 C.3   222  TYR222      0.0534
     82  CG         4.8320   55.8460   34.1940 C.ar  222  TYR222     -0.0201
     83  CD1        5.1680   54.8850   33.2470 C.ar  222  TYR222     -0.0009
     84  CD2        5.3400   55.7770   35.4960 C.ar  222  TYR222     -0.0009
     85  CE1        6.0280   53.8510   33.5880 C.ar  222  TYR222      0.0417
     86  CE2        6.2070   54.7460   35.8430 C.ar  222  TYR222      0.0417
     87  CZ         6.5400   53.7970   34.8770 C.ar  222  TYR222      0.1957
     88  OH         7.4020   52.7780   35.1820 O.3   222  TYR222     -0.2866
     89  N          0.7480   55.2380   33.4590 N.3   269  ALA269     -0.1245
     90  CA         1.2440   54.5820   34.6540 C.3   269  ALA269      0.1562
     91  C          0.6120   53.1950   34.6950 C.2   269  ALA269      0.2260
     92  O          1.3140   52.2650   35.1140 O.2   269  ALA269     -0.2867
     93  CB         0.8630   55.4210   35.8540 C.3   269  ALA269      0.0290
     94  N          0.8540   51.2510   32.5500 N.3   271  GLY271     -0.1225
     95  CA         1.9170   50.4560   31.8940 C.3   271  GLY271      0.1811
     96  C          2.0890   50.5350   30.3710 C.2   271  GLY271      0.2280
     97  O          3.1550   50.1830   29.7580 O.2   271  GLY271     -0.2866
     98  N         12.2500   53.3900   32.6310 N.3   297  TRP297     -0.1241
     99  CA        11.7270   52.0410   32.8230 C.3   297  TRP297      0.1605
    100  C         11.2260   51.5580   31.4650 C.2   297  TRP297      0.2264
    101  O         10.3590   52.2400   30.9090 O.2   297  TRP297     -0.2867
    102  CB        10.5510   52.0370   33.8200 C.3   297  TRP297      0.0550
    103  CG         9.9460   50.6620   34.1340 C.ar  297  TRP297      0.0003
    104  CD1        8.8590   50.2060   33.4340 C.ar  297  TRP297      0.0946
    105  CD2       10.3710   49.7550   35.0920 C.ar  297  TRP297      0.0152
    106  NE1        8.5940   49.0190   33.9270 N.ar  297  TRP297     -0.2442
    107  CE2        9.4560   48.7050   34.9150 C.ar  297  TRP297      0.0810
    108  CE3       11.3690   49.6390   36.0810 C.ar  297  TRP297      0.0012
    109  CZ2        9.5240   47.5430   35.7080 C.ar  297  TRP297      0.0191
    110  CZ3       11.4300   48.4860   36.8600 C.ar  297  TRP297      0.0001
    111  CH2       10.5140   47.4480   36.6810 C.ar  297  TRP297      0.0015
    112  N          9.4790   42.5760   26.7120 N.3   302  LYS302     -0.1245
    113  CA         8.0800   42.2160   26.9570 C.3   302  LYS302      0.1561
    114  C          7.2210   43.0930   26.0600 C.2   302  LYS302      0.2260
    115  O          7.6340   44.1940   25.6960 O.2   302  LYS302     -0.2867
    116  CB         7.7050   42.4850   28.4070 C.3   302  LYS302      0.0271
    117  CG         6.2900   42.1070   28.8000 C.3   302  LYS302      0.0035
    118  CD         6.0640   42.4460   30.2600 C.3   302  LYS302      0.0206
    119  CE         4.6550   41.9820   30.6160 C.3   302  LYS302      0.1093
    120  NZ         4.4790   41.9390   32.0610 N.3   302  LYS302     -0.1314
    121  N          4.9940   45.5280   25.9730 N.3   304  GLU304     -0.1245
    122  CA         4.3410   46.6060   26.6850 C.3   304  GLU304      0.1567
    123  C          5.0150   47.8820   26.2420 C.2   304  GLU304      0.2260
    124  O          6.2220   47.9170   25.9690 O.2   304  GLU304     -0.2867
    125  CB         4.4850   46.4510   28.1890 C.3   304  GLU304      0.0388
    126  CG         5.8950   46.2980   28.7660 C.3   304  GLU304      0.1160
    127  CD         5.8930   46.0180   30.2640 C.2   304  GLU304      0.3649
    128  OE1        4.9050   45.5040   30.7840 O.co2 304  GLU304     -0.2457
    129  OE2        6.8940   46.2870   30.9080 O.co2 304  GLU304     -0.2457
    130  N          6.1880   50.6610   27.6190 N.3   306  SER306     -0.1217
    131  CA         7.4090   51.1600   28.2260 C.3   306  SER306      0.1889
    132  C          8.6780   50.3650   27.9380 C.2   306  SER306      0.2288
    133  O          9.7870   50.8720   28.1520 O.2   306  SER306     -0.2866
    134  CB         7.2200   51.2570   29.7540 C.3   306  SER306      0.2089
    135  OG         6.7570   50.0440   30.3500 O.3   306  SER306     -0.2183
@<TRIPOS>BOND
     1   115   114    2
     2   124   123    2
     3   121   122    1
     4   114   113    1
     5   123   122    1
     6   122   125    1
     7   112   113    1
     8   113   116    1
     9   130   131    1
    10   132   133    2
    11   132   131    1
    12   125   126    1
    13   131   134    1
    14   116   117    1
    15   126   127    1
    16   117   118    1
    17   134   135    1
    18    97    96    2
    19    33    31   ar
    20    33    35   ar
    21   118   119    1
    22   127   128   ar
    23   127   129   ar
    24    31    30   ar
    25    96    95    1
    26    35    34   ar
    27   119   120    1
    28   101   100    2
    29   100    99    1
    30    30    29    1
    31    30    32   ar
    32    34    32   ar
    33    95    94    1
    34    29    26    1
    35    28    27    2
    36    98    99    1
    37    14    13    2
    38    26    27    1
    39    26    25    1
    40    79    80    2
    41    79    78    1
    42     7     9   ar
    43     7     6   ar
    44    99   102    1
    45     9    10   ar
    46    83    85   ar
    47    83    82   ar
    48   104   106   ar
    49   104   103   ar
    50    89    90    1
    51     5     6    1
    52     5     2    1
    53    78    81    1
    54    78    77    1
    55     6     8   ar
    56    85    87   ar
    57    13    25   am
    58    13    12    1
    59    81    82    1
    60   102   103    1
    61    10     8   ar
    62   106   107   ar
    63     1     2    1
    64   103   105   ar
    65    82    84   ar
    66     2     3    1
    67    90    91    1
    68    90    93    1
    69    91    92    2
    70    87    88    1
    71    87    86   ar
    72   107   105   ar
    73   107   109   ar
    74    15    12    1
    75    15    16    1
    76    12    11    1
    77   105   108   ar
    78    84    86   ar
    79   109   111   ar
    80     3     4    2
    81    16    17   ar
    82    16    18   ar
    83   108   110   ar
    84    17    19   ar
    85   111   110   ar
    86    18    21   ar
    87    18    20   ar
    88    21    23   ar
    89    19    20   ar
    90    20    22   ar
    91    23    24   ar
    92    22    24   ar
    93    47    46    1
    94    44    46   ar
    95    44    42   ar
    96    46    45   ar
    97    42    41   ar
    98    65    66   ar
    99    65    63   ar
   100    45    43   ar
   101    66    64   ar
   102    76    75   ar
   103    76    74   ar
   104    55    54   ar
   105    75    73   ar
   106    63    62   ar
   107    51    50    2
   108    41    43   ar
   109    41    40    1
   110    74    72   ar
   111    64    62   ar
   112    54    56   ar
   113    54    53    1
   114    62    61    1
   115    52    53    1
   116    52    49    1
   117    73    72   ar
   118    40    37    1
   119    50    49    1
   120    72    71    1
   121    36    37    1
   122    49    48    1
   123    61    58    1
   124    37    38    1
   125    71    68    1
   126    39    38    2
   127    58    59    1
   128    58    57    1
   129    60    59    2
   130    68    69    1
   131    68    67    1
   132    69    70    2
