@<TRIPOS>MOLECULE
tmp/1g0hA00.pdb
 137 130 0 0 0
SMALL
GASTEIGER

@<TRIPOS>ATOM
      1  N         29.1850   11.9690   45.7460 N.3    38  ASP38      -0.1239
      2  CA        28.0870   12.5380   46.5040 C.3    38  ASP38       0.1674
      3  C         27.3370   11.4730   47.2900 C.2    38  ASP38       0.2266
      4  O         27.4160   10.2940   46.9550 O.2    38  ASP38      -0.2867
      5  CB        27.0820   13.2260   45.5770 C.3    38  ASP38       0.1410
      6  CG        27.4080   14.6890   45.3640 C.2    38  ASP38       0.3668
      7  OD1       26.6690   15.5450   45.8950 O.co2  38  ASP38      -0.2456
      8  OD2       28.4060   14.9620   44.6630 O.co2  38  ASP38      -0.2456
      9  N         16.3420    8.9960   47.3640 N.3    44  ASP44      -0.1239
     10  CA        16.8360    9.1820   46.0080 C.3    44  ASP44       0.1674
     11  C         16.8170    7.8490   45.2590 C.2    44  ASP44       0.2266
     12  O         16.2890    7.7420   44.1530 O.2    44  ASP44      -0.2867
     13  CB        18.2570    9.7230   45.9730 C.3    44  ASP44       0.1410
     14  CG        18.4180   11.1310   46.4930 C.2    44  ASP44       0.3668
     15  OD1       17.7440   12.0610   46.0030 O.co2  44  ASP44      -0.2456
     16  OD2       19.2540   11.3010   47.4100 O.co2  44  ASP44      -0.2456
     17  N         21.4040   11.3590   37.6750 N.3    65  GLU65      -0.1245
     18  CA        22.2800   11.7470   38.7650 C.3    65  GLU65       0.1567
     19  C         23.0740   10.5730   39.3330 C.2    65  GLU65       0.2260
     20  O         24.2510   10.4030   39.0290 O.2    65  GLU65      -0.2867
     21  CB        21.4410   12.3670   39.8840 C.3    65  GLU65       0.0388
     22  CG        21.8190   13.7680   40.3280 C.3    65  GLU65       0.1160
     23  CD        20.8740   14.2750   41.4130 C.2    65  GLU65       0.3649
     24  OE1       20.2650   13.4070   42.0840 O.co2  65  GLU65      -0.2457
     25  OE2       20.4390   15.4450   41.2990 O.co2  65  GLU65      -0.2457
     26  N         16.4250   13.8600   36.7900 N.3    81  ASP81      -0.1239
     27  CA        16.7040   14.0260   38.2090 C.3    81  ASP81       0.1674
     28  C         15.3990   13.7380   38.9520 C.2    81  ASP81       0.2266
     29  O         14.5050   14.5850   39.0100 O.2    81  ASP81      -0.2867
     30  CB        17.2580   15.4130   38.4920 C.3    81  ASP81       0.1410
     31  CG        17.7170   15.6380   39.9160 C.2    81  ASP81       0.3668
     32  OD1       17.9790   16.8000   40.3030 O.co2  81  ASP81      -0.2456
     33  OD2       17.8230   14.6520   40.6700 O.co2  81  ASP81      -0.2456
     34  N         14.5340   13.7840   41.8320 N.3    83  ILE83      -0.1231
     35  CA        14.2680   14.7900   42.8560 C.3    83  ILE83       0.1692
     36  C         15.3590   15.8530   42.7950 C.2    83  ILE83       0.2592
     37  O         16.5130   15.5300   43.0760 O.2    83  ILE83      -0.2718
     38  CB        14.2440   14.2190   44.2820 C.3    83  ILE83       0.0266
     39  CG1       13.1910   13.1280   44.4910 C.3    83  ILE83       0.0019
     40  CG2       14.0780   15.3280   45.3090 C.3    83  ILE83       0.0020
     41  CD1       11.9090   13.6680   45.0850 C.3    83  ILE83       0.0001
     42  N         14.9890   17.0650   42.4200 N.am   84  ASP84      -0.1960
     43  CA        15.9470   18.1640   42.4180 C.3    84  ASP84       0.1840
     44  C         15.7270   18.9690   43.6990 C.2    84  ASP84       0.2623
     45  O         14.6010   19.3970   43.9410 O.2    84  ASP84      -0.2715
     46  CB        15.8180   19.0640   41.1950 C.3    84  ASP84       0.1450
     47  CG        16.9620   20.0670   41.1450 C.2    84  ASP84       0.3671
     48  OD1       18.1240   19.6010   41.2650 O.co2  84  ASP84      -0.2456
     49  OD2       16.6670   21.2740   41.0010 O.co2  84  ASP84      -0.2456
     50  N         16.7830   19.1330   44.4860 N.am   85  GLY85      -0.1940
     51  CA        16.6560   19.8150   45.7700 C.3    85  GLY85       0.2014
     52  C         16.2610   18.8270   46.8560 C.2    85  GLY85       0.2640
     53  O         15.2240   18.9950   47.4890 O.2    85  GLY85      -0.2714
     54  N         17.0840   17.8010   47.0460 N.am   86  SER86      -0.1935
     55  CA        16.8070   16.7690   48.0330 C.3    86  SER86       0.2055
     56  C         17.0600   17.2430   49.4640 C.2    86  SER86       0.2643
     57  O         16.3840   16.7810   50.3870 O.2    86  SER86      -0.2714
     58  CB        17.6550   15.5220   47.7650 C.3    86  SER86       0.2130
     59  OG        18.9860   15.9070   47.4670 O.3    86  SER86      -0.2179
     60  N         18.0230   18.1350   49.6460 N.am   87  PHE87      -0.1973
     61  CA        18.2740   18.6810   50.9830 C.3    87  PHE87       0.1639
     62  C         16.9650   19.2640   51.5180 C.2    87  PHE87       0.2290
     63  O         16.5000   18.9190   52.6020 O.2    87  PHE87      -0.2864
     64  CB        19.3860   19.7270   50.9520 C.3    87  PHE87       0.0560
     65  CG        19.4600   20.6130   52.1860 C.ar   87  PHE87      -0.0200
     66  CD1       18.8670   21.8630   52.2090 C.ar   87  PHE87      -0.0042
     67  CD2       20.1290   20.1800   53.3180 C.ar   87  PHE87      -0.0042
     68  CE1       18.9390   22.6430   53.3440 C.ar   87  PHE87      -0.0003
     69  CE2       20.2010   20.9460   54.4610 C.ar   87  PHE87      -0.0003
     70  CZ        19.5980   22.1880   54.4700 C.ar   87  PHE87      -0.0000
     71  N         23.5420   31.9980   42.6140 N.3   152  TYR152     -0.1241
     72  CA        24.5390   31.1520   43.2650 C.3   152  TYR152      0.1605
     73  C         25.9250   31.6570   42.8910 C.2   152  TYR152      0.2264
     74  O         26.4880   31.2910   41.8630 O.2   152  TYR152     -0.2867
     75  CB        24.3170   29.6960   42.8760 C.3   152  TYR152      0.0534
     76  CG        22.9280   29.2180   43.2480 C.ar  152  TYR152     -0.0201
     77  CD1       21.8990   29.1910   42.3190 C.ar  152  TYR152     -0.0009
     78  CD2       22.6560   28.7950   44.5420 C.ar  152  TYR152     -0.0009
     79  CE1       20.6380   28.7510   42.6760 C.ar  152  TYR152      0.0417
     80  CE2       21.3990   28.3550   44.9030 C.ar  152  TYR152      0.0417
     81  CZ        20.3900   28.3350   43.9660 C.ar  152  TYR152      0.1957
     82  OH        19.1360   27.8950   44.3280 O.3   152  TYR152     -0.2866
     83  N         17.2390   26.8640   46.5640 N.3   173  GLY173     -0.1210
     84  CA        18.0430   25.6550   46.6170 C.3   173  GLY173      0.1956
     85  C         17.5080   24.5260   45.7640 C.2   173  GLY173      0.2612
     86  O         17.6710   23.3490   46.1180 O.2   173  GLY173     -0.2717
     87  N         16.8750   24.8250   44.6290 N.am  174  ALA174     -0.1965
     88  CA        16.5900   23.7770   43.6400 C.3   174  ALA174      0.1728
     89  C         16.6090   24.4070   42.2490 C.2   174  ALA174      0.2616
     90  O         15.6380   25.0050   41.7980 O.2   174  ALA174     -0.2715
     91  CB        15.2910   23.0530   43.8970 C.3   174  ALA174      0.0334
     92  N         17.7590   24.2800   41.5930 N.am  175  PHE175     -0.1974
     93  CA        17.9890   25.0550   40.3820 C.3   175  PHE175      0.1639
     94  C         16.9750   24.7730   39.2780 C.2   175  PHE175      0.2290
     95  O         16.4170   25.7250   38.7340 O.2   175  PHE175     -0.2864
     96  CB        19.3990   24.7970   39.8370 C.3   175  PHE175      0.0560
     97  CG        19.8800   26.0400   39.0930 C.ar  175  PHE175     -0.0200
     98  CD1       19.7560   26.1140   37.7160 C.ar  175  PHE175     -0.0042
     99  CD2       20.4260   27.0830   39.8240 C.ar  175  PHE175     -0.0042
    100  CE1       20.1940   27.2450   37.0560 C.ar  175  PHE175     -0.0003
    101  CE2       20.8730   28.2060   39.1570 C.ar  175  PHE175     -0.0003
    102  CZ        20.7490   28.2800   37.7810 C.ar  175  PHE175     -0.0000
    103  N         28.8740   30.0400   40.4330 N.3   194  ARG194     -0.1245
    104  CA        29.6210   29.1310   41.3040 C.3   194  ARG194      0.1563
    105  C         29.3320   27.7280   40.7840 C.2   194  ARG194      0.2260
    106  O         28.3760   27.0710   41.1820 O.2   194  ARG194     -0.2867
    107  CB        29.2510   29.2800   42.7660 C.3   194  ARG194      0.0307
    108  CG        27.8330   28.9420   43.1840 C.3   194  ARG194      0.0489
    109  CD        27.7660   27.5850   43.8570 C.3   194  ARG194      0.2205
    110  NE        26.4690   27.2280   44.3940 N.pl3 194  ARG194     -0.0865
    111  CZ        25.4860   26.5680   43.8090 C.cat 194  ARG194      0.5346
    112  NH1       24.3570   26.3280   44.4670 N.pl3 194  ARG194      0.1354
    113  NH2       25.5980   26.1350   42.5630 N.pl3 194  ARG194      0.1354
    114  N         28.2250   24.5560   39.9930 N.3   196  LYS196     -0.1231
    115  CA        27.7770   23.3490   40.6760 C.3   196  LYS196      0.1693
    116  C         26.6920   22.6250   39.8890 C.2   196  LYS196      0.2591
    117  O         26.5620   21.4010   39.9440 O.2   196  LYS196     -0.2718
    118  CB        27.2490   23.6850   42.0660 C.3   196  LYS196      0.0285
    119  CG        28.1730   23.3590   43.2160 C.3   196  LYS196      0.0035
    120  CD        29.3250   22.4610   42.8020 C.3   196  LYS196      0.0206
    121  CE        30.4380   22.4790   43.8410 C.3   196  LYS196      0.1093
    122  NZ        30.3570   21.3120   44.7690 N.3   196  LYS196     -0.1314
    123  N         25.8740   23.3650   39.1390 N.am  197  VAL197     -0.1980
    124  CA        24.7660   22.6980   38.4470 C.3   197  VAL197      0.1595
    125  C         25.2810   21.8420   37.2920 C.2   197  VAL197      0.2287
    126  O         26.3980   22.0690   36.8290 O.2   197  VAL197     -0.2864
    127  CB        23.7180   23.7080   37.9500 C.3   197  VAL197      0.0276
    128  CG1       24.2420   24.5430   36.7960 C.3   197  VAL197      0.0022
    129  CG2       22.4570   22.9640   37.5380 C.3   197  VAL197      0.0022
    130  N         20.3190   18.6270   36.1300 N.3   201  ASP201     -0.1239
    131  CA        19.5100   19.6420   36.8040 C.3   201  ASP201      0.1674
    132  C         18.8680   20.6120   35.8320 C.2   201  ASP201      0.2266
    133  O         17.8180   21.1890   36.1240 O.2   201  ASP201     -0.2867
    134  CB        20.3530   20.4380   37.8090 C.3   201  ASP201      0.1410
    135  CG        21.1460   19.5450   38.7410 C.2   201  ASP201      0.3668
    136  OD1       20.5060   18.7870   39.5020 O.co2 201  ASP201     -0.2456
    137  OD2       22.3660   19.3800   38.5230 O.co2 201  ASP201     -0.2456
@<TRIPOS>BOND
     1   132   133    2
     2   132   131    1
     3   130   131    1
     4    26    27    1
     5   128   127    1
     6   131   134    1
     7   126   125    2
     8   100    98   ar
     9   100   102   ar
    10   125   124    1
    11   129   127    1
    12    17    18    1
    13    98    97   ar
    14   102   101   ar
    15   134   135    1
    16   127   124    1
    17    27    30    1
    18    27    28    1
    19   124   123    1
    20    30    31    1
    21   137   135   ar
    22    95    94    2
    23   135   136   ar
    24    18    19    1
    25    18    21    1
    26    28    29    2
    27    20    19    2
    28    97    99   ar
    29    97    96    1
    30   123   116   am
    31   101    99   ar
    32    94    93    1
    33    96    93    1
    34    21    22    1
    35   116   117    2
    36   116   115    1
    37    31    32   ar
    38    31    33   ar
    39   114   115    1
    40    22    23    1
    41    93    92    1
    42   103   104    1
    43   115   118    1
    44   105   106    2
    45   105   104    1
    46    49    47   ar
    47    47    46    1
    48    47    48   ar
    49    46    43    1
    50    25    23   ar
    51   104   107    1
    52    23    24   ar
    53    92    89   am
    54    90    89    2
    55    34    35    1
    56    74    73    2
    57   118   119    1
    58    89    88    1
    59    77    79   ar
    60    77    76   ar
    61    43    42    1
    62    43    44    1
    63    42    36   am
    64   113   111    1
    65    71    72    1
    66    79    81   ar
    67   107   108    1
    68    36    35    1
    69    36    37    2
    70   120   119    1
    71   120   121    1
    72    35    38    1
    73    75    76    1
    74    75    72    1
    75    73    72    1
    76   108   109    1
    77    76    78   ar
    78    88    91    1
    79    88    87    1
    80    44    45    2
    81    44    50   am
    82   111   110    2
    83   111   112    1
    84   121   122    1
    85   109   110    1
    86    81    82    1
    87    81    80   ar
    88    12    11    2
    89    38    39    1
    90    38    40    1
    91    50    51    1
    92    39    41    1
    93    78    80   ar
    94    87    85   am
    95     8     6   ar
    96    11    10    1
    97     6     5    1
    98     6     7   ar
    99     5     2    1
   100     1     2    1
   101    85    86    2
   102    85    84    1
   103    51    52    1
   104    13    10    1
   105    13    14    1
   106    15    14   ar
   107    10     9    1
   108    14    16   ar
   109     2     3    1
   110    83    84    1
   111    52    54   am
   112    52    53    2
   113     4     3    2
   114    54    55    1
   115    59    58    1
   116    58    55    1
   117    55    56    1
   118    56    60   am
   119    56    57    2
   120    60    61    1
   121    64    61    1
   122    64    65    1
   123    61    62    1
   124    62    63    2
   125    65    66   ar
   126    65    67   ar
   127    66    68   ar
   128    67    69   ar
   129    68    70   ar
   130    69    70   ar
