@<TRIPOS>MOLECULE
tmp/1g0nA01.pdb
 137 133 0 0 0
SMALL
GASTEIGER

@<TRIPOS>ATOM
      1  N         94.4960   78.1090   -2.2120 N.3   108  VAL108     -0.1245
      2  CA        95.9410   77.9450   -2.2120 C.3   108  VAL108      0.1561
      3  C         96.6110   79.3180   -2.0090 C.2   108  VAL108      0.2260
      4  O         95.9550   80.3680   -2.1030 O.2   108  VAL108     -0.2867
      5  CB        96.4370   77.2000   -3.4720 C.3   108  VAL108      0.0252
      6  CG1       96.3590   78.1110   -4.6840 C.3   108  VAL108      0.0019
      7  CG2       97.8540   76.6390   -3.2430 C.3   108  VAL108      0.0019
      8  N         96.5950   67.8610    3.1460 N.3   154  SER154     -0.1202
      9  CA        97.4930   67.9530    2.0170 C.3   154  SER154      0.2020
     10  C         98.8400   67.3370    2.3590 C.2   154  SER154      0.2619
     11  O         99.2100   67.2380    3.5220 O.2   154  SER154     -0.2717
     12  CB        97.6850   69.4390    1.6670 C.3   154  SER154      0.2103
     13  OG        98.7130   69.6210    0.7260 O.3   154  SER154     -0.2182
     14  N         99.5700   66.9340    1.3310 N.am  155  ILE155     -0.1965
     15  CA       100.9090   66.3840    1.5130 C.3   155  ILE155      0.1727
     16  C        101.7900   67.4670    2.1530 C.2   155  ILE155      0.2616
     17  O        102.7270   67.1560    2.8720 O.2   155  ILE155     -0.2715
     18  CB       101.5220   65.9610    0.1560 C.3   155  ILE155      0.0290
     19  CG1      102.8750   65.2800    0.3470 C.3   155  ILE155      0.0022
     20  CG2      101.7100   67.1580   -0.7350 C.3   155  ILE155      0.0023
     21  CD1      103.4250   64.6920   -0.9360 C.3   155  ILE155      0.0001
     22  N        101.4500   68.7370    1.9220 N.am  156  THR156     -0.1951
     23  CA       102.2150   69.8650    2.4620 C.3   156  THR156      0.1897
     24  C        102.2320   69.9220    3.9760 C.2   156  THR156      0.2313
     25  O        103.1540   70.4940    4.5590 O.2   156  THR156     -0.2863
     26  CB       101.7620   71.2490    1.8770 C.3   156  THR156      0.1794
     27  OG1      100.3890   71.5040    2.1950 O.3   156  THR156     -0.2208
     28  CG2      101.9350   71.2770    0.3720 C.3   156  THR156      0.0378
     29  N         99.8410   78.2000    3.4720 N.3   168  TYR168     -0.1241
     30  CA        99.0010   77.1160    2.9770 C.3   168  TYR168      0.1605
     31  C         99.2880   75.7960    3.6900 C.2   168  TYR168      0.2264
     32  O         98.3820   75.1440    4.2130 O.2   168  TYR168     -0.2867
     33  CB        99.2020   76.9500    1.4710 C.3   168  TYR168      0.0534
     34  CG        98.4340   75.7930    0.8980 C.ar  168  TYR168     -0.0201
     35  CD1       97.0810   75.9190    0.6040 C.ar  168  TYR168     -0.0009
     36  CD2       99.0490   74.5490    0.6930 C.ar  168  TYR168     -0.0009
     37  CE1       96.3540   74.8480    0.1290 C.ar  168  TYR168      0.0417
     38  CE2       98.3280   73.4730    0.2130 C.ar  168  TYR168      0.0417
     39  CZ        96.9810   73.6280   -0.0610 C.ar  168  TYR168      0.1957
     40  OH        96.2470   72.5490   -0.4790 O.3   168  TYR168     -0.2866
     41  N         95.9120   64.7310   -0.0730 N.3   198  PRO198     -0.2102
     42  CA        96.3550   64.5240   -1.4550 C.3   198  PRO198      0.1504
     43  C         97.7040   65.1570   -1.7740 C.2   198  PRO198      0.2576
     44  O         98.1820   66.0580   -1.0800 O.2   198  PRO198     -0.2718
     45  CB        95.2820   65.2510   -2.2880 C.3   198  PRO198      0.0282
     46  CG        94.1150   65.4100   -1.3650 C.3   198  PRO198      0.0208
     47  CD        94.7670   65.6580   -0.0350 C.3   198  PRO198      0.0893
     48  N         98.3280   64.6300   -2.8100 N.am  199  GLY199     -0.1943
     49  CA        99.5520   65.2060   -3.3080 C.3   199  GLY199      0.2014
     50  C         98.9910   66.1100   -4.3980 C.2   199  GLY199      0.2639
     51  O         97.8410   66.5560   -4.2980 O.2   199  GLY199     -0.2714
     52  N         99.7580   66.3530   -5.4540 N.am  200  GLY200     -0.1939
     53  CA        99.2790   67.2020   -6.5260 C.3   200  GLY200      0.2014
     54  C         98.1840   66.4970   -7.2820 C.2   200  GLY200      0.2638
     55  O         98.3400   65.3480   -7.6650 O.2   200  GLY200     -0.2714
     56  N         97.0810   67.1970   -7.5160 N.am  201  ILE201     -0.1977
     57  CA        95.9270   66.6290   -8.2160 C.3   201  ILE201      0.1596
     58  C         95.4660   67.5700   -9.3250 C.2   201  ILE201      0.2287
     59  O         95.2740   68.7540   -9.0800 O.2   201  ILE201     -0.2864
     60  CB        94.7350   66.4290   -7.2360 C.3   201  ILE201      0.0276
     61  CG1       95.1530   65.6130   -6.0000 C.3   201  ILE201      0.0022
     62  CG2       93.5780   65.7540   -7.9530 C.3   201  ILE201      0.0022
     63  CD1       95.4890   64.1490   -6.2710 C.3   201  ILE201      0.0001
     64  N         93.4290   69.8230  -11.1200 N.3   203  THR203     -0.1218
     65  CA        92.2090   70.6180  -10.9230 C.3   203  THR203      0.1862
     66  C         92.6460   72.0390  -11.2340 C.2   203  THR203      0.2287
     67  O         93.7980   72.2610  -11.5780 O.2   203  THR203     -0.2866
     68  CB        91.7470   70.6440   -9.4640 C.3   203  THR203      0.1770
     69  OG1       92.7540   71.2850   -8.6740 O.3   203  THR203     -0.2211
     70  CG2       91.4650   69.2500   -8.9320 C.3   203  THR203      0.0375
     71  N         93.1410   74.4380   -9.1080 N.3   205  MET205     -0.1230
     72  CA        94.1600   74.7990   -8.1220 C.3   205  MET205      0.1702
     73  C         95.5110   74.3040   -8.6290 C.2   205  MET205      0.2592
     74  O         96.5170   75.0110   -8.5570 O.2   205  MET205     -0.2718
     75  CB        93.8560   74.1530   -6.7700 C.3   205  MET205      0.0401
     76  CG        94.8250   74.5720   -5.7000 C.3   205  MET205      0.0596
     77  SD        94.5020   73.8740   -4.0970 S.3   205  MET205     -0.1393
     78  CE        93.1980   74.9840   -3.4320 C.3   205  MET205      0.0692
     79  N         95.5070   73.0800   -9.1540 N.am  206  TYR206     -0.1976
     80  CA        96.6970   72.4410   -9.7020 C.3   206  TYR206      0.1639
     81  C         97.3640   73.2910  -10.7620 C.2   206  TYR206      0.2290
     82  O         98.5190   73.6550  -10.6230 O.2   206  TYR206     -0.2864
     83  CB        96.3210   71.0920  -10.2980 C.3   206  TYR206      0.0560
     84  CG        97.4070   70.4260  -11.1160 C.ar  206  TYR206     -0.0198
     85  CD1       98.3440   69.5810  -10.5070 C.ar  206  TYR206     -0.0009
     86  CD2       97.4400   70.5650  -12.5080 C.ar  206  TYR206     -0.0009
     87  CE1       99.2720   68.8800  -11.2620 C.ar  206  TYR206      0.0417
     88  CE2       98.3640   69.8730  -13.2720 C.ar  206  TYR206      0.0417
     89  CZ        99.2730   69.0270  -12.6430 C.ar  206  TYR206      0.1957
     90  OH       100.1570   68.2940  -13.3920 O.3   206  TYR206     -0.2866
     91  N         98.9170   76.9290   -9.3690 N.3   209  VAL209     -0.1231
     92  CA       100.1280   76.8570   -8.5610 C.3   209  VAL209      0.1692
     93  C        101.0760   75.6970   -8.7790 C.2   209  VAL209      0.2592
     94  O        102.1050   75.6230   -8.1200 O.2   209  VAL209     -0.2718
     95  CB        99.7890   76.9340   -7.0670 C.3   209  VAL209      0.0266
     96  CG1       98.9610   78.1800   -6.7860 C.3   209  VAL209      0.0020
     97  CG2       99.0840   75.6720   -6.6150 C.3   209  VAL209      0.0020
     98  N        100.7370   74.8040   -9.7030 N.am  210  CYS210     -0.1970
     99  CA       101.5720   73.6410   -9.9890 C.3   210  CYS210      0.1712
    100  C        103.0170   74.0650  -10.1760 C.2   210  CYS210      0.2296
    101  O        103.9030   73.5900   -9.4710 O.2   210  CYS210     -0.2864
    102  CB       101.0910   72.9030  -11.2470 C.3   210  CYS210      0.0983
    103  SG       100.8220   73.9820  -12.7120 S.3   210  CYS210     -0.0798
    104  N        105.6620   74.5350   -7.3260 N.3   213  TYR213     -0.1241
    105  CA       106.2220   73.4100   -6.5720 C.3   213  TYR213      0.1605
    106  C        107.3900   72.8290   -7.3900 C.2   213  TYR213      0.2264
    107  O        108.1140   71.9400   -6.9230 O.2   213  TYR213     -0.2867
    108  CB       105.1770   72.3050   -6.3510 C.3   213  TYR213      0.0534
    109  CG       103.9580   72.7180   -5.5640 C.ar  213  TYR213     -0.0201
    110  CD1      102.8570   73.3060   -6.2000 C.ar  213  TYR213     -0.0009
    111  CD2      103.8900   72.5020   -4.1900 C.ar  213  TYR213     -0.0009
    112  CE1      101.7170   73.6650   -5.4880 C.ar  213  TYR213      0.0417
    113  CE2      102.7500   72.8580   -3.4630 C.ar  213  TYR213      0.0417
    114  CZ       101.6650   73.4380   -4.1200 C.ar  213  TYR213      0.1957
    115  OH       100.5280   73.7720   -3.4110 O.3   213  TYR213     -0.2866
    116  N        106.8480   63.4440   -8.9080 N.3   233  TRP233     -0.1241
    117  CA       106.1110   63.1880   -7.6710 C.3   233  TRP233      0.1605
    118  C        105.5270   61.7980   -7.4700 C.2   233  TRP233      0.2264
    119  O        104.8130   61.5640   -6.4970 O.2   233  TRP233     -0.2867
    120  CB       105.0350   64.2520   -7.4590 C.3   233  TRP233      0.0550
    121  CG       105.5920   65.6290   -7.4230 C.ar  233  TRP233      0.0003
    122  CD1      106.7940   66.0200   -6.8990 C.ar  233  TRP233      0.0946
    123  CD2      105.0110   66.7900   -8.0100 C.ar  233  TRP233      0.0152
    124  NE1      107.0020   67.3500   -7.1450 N.ar  233  TRP233     -0.2442
    125  CE2      105.9260   67.8520   -7.8260 C.ar  233  TRP233      0.0810
    126  CE3      103.8090   67.0390   -8.6800 C.ar  233  TRP233      0.0012
    127  CZ2      105.6770   69.1460   -8.2930 C.ar  233  TRP233      0.0191
    128  CZ3      103.5600   68.3210   -9.1440 C.ar  233  TRP233      0.0001
    129  CH2      104.4930   69.3610   -8.9490 C.ar  233  TRP233      0.0015
    130  N        107.7640   65.1120   -0.9970 N.3   273  MET273     -0.1245
    131  CA       107.8060   66.5600   -1.1440 C.3   273  MET273      0.1570
    132  C        108.2190   67.3140    0.1110 C.2   273  MET273      0.2261
    133  O        108.5330   68.5100   -0.0330 O.2   273  MET273     -0.2867
    134  CB       106.4590   67.0740   -1.6450 C.3   273  MET273      0.0387
    135  CG       106.3180   66.9900   -3.1420 C.3   273  MET273      0.0595
    136  SD       104.7130   67.4840   -3.7280 S.3   273  MET273     -0.1393
    137  CE       104.2940   66.0140   -4.2660 C.3   273  MET273      0.0692
@<TRIPOS>BOND
     1    90    89    1
     2    88    89   ar
     3    88    86   ar
     4   103   102    1
     5    89    87   ar
     6    86    84   ar
     7    67    66    2
     8    87    85   ar
     9   102    99    1
    10    66    65    1
    11    64    65    1
    12    84    85   ar
    13    84    83    1
    14    65    68    1
    15    81    82    2
    16    81    80    1
    17    83    80    1
    18   100    99    1
    19   100   101    2
    20    99    98    1
    21    98    93   am
    22    80    79    1
    23    68    70    1
    24    68    69    1
    25    91    92    1
    26    58    59    2
    27    58    57    1
    28    79    73   am
    29   128   129   ar
    30   128   126   ar
    31    71    72    1
    32   129   127   ar
    33   116   117    1
    34    93    92    1
    35    93    94    2
    36   126   123   ar
    37    73    74    2
    38    73    72    1
    39    92    95    1
    40   127   125   ar
    41    57    56    1
    42    57    60    1
    43    72    75    1
    44   123   125   ar
    45   123   121   ar
    46    62    60    1
    47   125   124   ar
    48   117   118    1
    49   117   120    1
    50    55    54    2
    51    56    54   am
    52   118   119    2
    53   120   121    1
    54   121   122   ar
    55   106   107    2
    56   106   105    1
    57   104   105    1
    58    54    53    1
    59    60    61    1
    60   124   122   ar
    61    95    96    1
    62    95    97    1
    63    75    76    1
    64   105   108    1
    65    53    52    1
    66   108   109    1
    67    63    61    1
    68   110   109   ar
    69   110   112   ar
    70    76    77    1
    71   109   111   ar
    72   112   114   ar
    73    52    50   am
    74     6     5    1
    75    50    51    2
    76    50    49    1
    77   137   136    1
    78   111   113   ar
    79   114   113   ar
    80   114   115    1
    81    77    78    1
    82   136   135    1
    83     5     7    1
    84     5     2    1
    85    49    48    1
    86   135   134    1
    87    48    43   am
    88    45    42    1
    89    45    46    1
    90     1     2    1
    91     2     3    1
    92     4     3    2
    93    43    42    1
    94    43    44    2
    95   134   131    1
    96    42    41    1
    97    46    47    1
    98   131   130    1
    99   131   132    1
   100    21    19    1
   101    20    18    1
   102    40    39    1
   103    41    47    1
   104    39    37   ar
   105    39    38   ar
   106   133   132    2
   107    37    35   ar
   108    18    19    1
   109    18    15    1
   110    38    36   ar
   111    28    26    1
   112    35    34   ar
   113    36    34   ar
   114    13    12    1
   115    34    33    1
   116    14    15    1
   117    14    10   am
   118    33    30    1
   119    15    16    1
   120    12     9    1
   121    26    27    1
   122    26    23    1
   123    22    16   am
   124    22    23    1
   125     9    10    1
   126     9     8    1
   127    16    17    2
   128    10    11    2
   129    23    24    1
   130    30    29    1
   131    30    31    1
   132    31    32    2
   133    24    25    2
