@<TRIPOS>MOLECULE
tmp/1g0oC01.pdb
 130 127 0 0 0
SMALL
GASTEIGER

@<TRIPOS>ATOM
      1  N        -13.8800   80.3770   30.7620 N.3   116  VAL116     -0.1245
      2  CA       -13.6560   80.4450   32.2060 C.3   116  VAL116      0.1561
      3  C        -14.7460   79.6460   32.9300 C.2   116  VAL116      0.2260
      4  O        -15.8340   79.4000   32.3920 O.2   116  VAL116     -0.2867
      5  CB       -13.6370   81.9250   32.7050 C.3   116  VAL116      0.0252
      6  CG1      -15.0210   82.5500   32.5490 C.3   116  VAL116      0.0019
      7  CG2      -13.1360   82.0230   34.1510 C.3   116  VAL116      0.0019
      8  N         -2.7220   82.9690   32.4000 N.3   162  SER162     -0.1202
      9  CA        -3.5260   83.8310   33.2560 C.3   162  SER162      0.2020
     10  C         -2.8350   83.9750   34.6000 C.2   162  SER162      0.2619
     11  O         -2.0950   83.0790   35.0220 O.2   162  SER162     -0.2717
     12  CB        -4.9090   83.2070   33.4860 C.3   162  SER162      0.2103
     13  OG        -5.6790   83.9680   34.4100 O.3   162  SER162     -0.2182
     14  N         -3.1190   85.0850   35.2820 N.am  163  ILE163     -0.1965
     15  CA        -2.5830   85.3350   36.6140 C.3   163  ILE163      0.1727
     16  C         -3.0320   84.1830   37.5240 C.2   163  ILE163      0.2616
     17  O         -2.3640   83.8750   38.5250 O.2   163  ILE163     -0.2715
     18  CB        -3.0840   86.6940   37.1820 C.3   163  ILE163      0.0290
     19  CG1       -2.3680   87.0190   38.5080 C.3   163  ILE163      0.0022
     20  CG2       -4.5930   86.6820   37.3500 C.3   163  ILE163      0.0023
     21  CD1       -2.5750   88.4470   39.0130 C.3   163  ILE163      0.0001
     22  N         -4.1230   83.5090   37.1410 N.am  164  THR164     -0.1951
     23  CA        -4.6440   82.3810   37.9210 C.3   164  THR164      0.1897
     24  C         -3.7240   81.1640   37.9760 C.2   164  THR164      0.2313
     25  O         -3.8890   80.3180   38.8550 O.2   164  THR164     -0.2863
     26  CB        -6.0400   81.9260   37.4360 C.3   164  THR164      0.1794
     27  OG1       -5.9630   81.4470   36.0810 O.3   164  THR164     -0.2208
     28  CG2       -7.0370   83.0920   37.5560 C.3   164  THR164      0.0378
     29  N        -10.2610   76.0710   36.1200 N.3   176  TYR176     -0.1241
     30  CA        -9.7510   77.0960   35.2020 C.3   176  TYR176      0.1605
     31  C         -8.2840   77.4260   35.4900 C.2   176  TYR176      0.2264
     32  O         -7.4520   77.4500   34.5830 O.2   176  TYR176     -0.2867
     33  CB       -10.5960   78.3670   35.2820 C.3   176  TYR176      0.0534
     34  CG       -10.0500   79.5150   34.4630 C.ar  176  TYR176     -0.0201
     35  CD1      -10.2810   79.5870   33.0910 C.ar  176  TYR176     -0.0009
     36  CD2       -9.3560   80.5630   35.0750 C.ar  176  TYR176     -0.0009
     37  CE1       -9.8460   80.6880   32.3430 C.ar  176  TYR176      0.0417
     38  CE2       -8.9150   81.6670   34.3480 C.ar  176  TYR176      0.0417
     39  CZ        -9.1700   81.7330   32.9780 C.ar  176  TYR176      0.1957
     40  OH        -8.8190   82.8630   32.2670 O.3   176  TYR176     -0.2866
     41  N         -2.2030   87.4650   31.6890 N.3   206  PRO206     -0.2102
     42  CA        -2.9050   88.6950   32.0740 C.3   206  PRO206      0.1504
     43  C         -3.6050   88.6370   33.4350 C.2   206  PRO206      0.2576
     44  O         -3.9130   87.5530   33.9610 O.2   206  PRO206     -0.2718
     45  CB        -3.9800   88.8400   30.9830 C.3   206  PRO206      0.0282
     46  CG        -3.4800   87.9990   29.8460 C.3   206  PRO206      0.0208
     47  CD        -2.8720   86.8140   30.5480 C.3   206  PRO206      0.0893
     48  N         -3.8070   89.8210   34.0140 N.am  207  GLY207     -0.1943
     49  CA        -4.5970   89.9310   35.2280 C.3   207  GLY207      0.2014
     50  C         -5.9770   90.1990   34.6120 C.2   207  GLY207      0.2639
     51  O         -6.1620   89.9510   33.4110 O.2   207  GLY207     -0.2714
     52  N         -6.9360   90.7070   35.3890 N.am  208  GLY208     -0.1939
     53  CA        -8.2460   91.0120   34.8310 C.3   208  GLY208      0.2014
     54  C         -8.1510   92.0700   33.7380 C.2   208  GLY208      0.2638
     55  O         -7.4840   93.0930   33.9020 O.2   208  GLY208     -0.2714
     56  N         -8.8130   91.8100   32.6160 N.am  209  ILE209     -0.1977
     57  CA        -8.8140   92.6990   31.4470 C.3   209  ILE209      0.1596
     58  C        -10.2800   92.9040   31.0190 C.2   209  ILE209      0.2287
     59  O        -11.0130   91.9220   30.8570 O.2   209  ILE209     -0.2864
     60  CB        -8.0510   92.0310   30.2460 C.3   209  ILE209      0.0276
     61  CG1       -6.6040   91.6680   30.6240 C.3   209  ILE209      0.0022
     62  CG2       -8.0810   92.9200   29.0240 C.3   209  ILE209      0.0022
     63  CD1       -5.7210   92.8440   30.9610 C.3   209  ILE209      0.0001
     64  N        -15.6290   88.3030   28.8840 N.3   213  MET213     -0.1230
     65  CA       -15.3400   87.3480   29.9490 C.3   213  MET213      0.1702
     66  C        -15.2830   88.0630   31.2940 C.2   213  MET213      0.2592
     67  O        -15.9290   87.6330   32.2400 O.2   213  MET213     -0.2718
     68  CB       -14.0220   86.6160   29.6930 C.3   213  MET213      0.0401
     69  CG       -13.7030   85.5530   30.7480 C.3   213  MET213      0.0596
     70  SD       -12.1550   84.6880   30.4220 S.3   213  MET213     -0.1393
     71  CE       -12.6210   83.6900   28.9700 C.3   213  MET213      0.0692
     72  N        -14.5130   89.1530   31.3630 N.am  214  TYR214     -0.1976
     73  CA       -14.3770   89.9620   32.5830 C.3   214  TYR214      0.1639
     74  C        -15.7640   90.4020   33.0450 C.2   214  TYR214      0.2290
     75  O        -16.1050   90.3300   34.2230 O.2   214  TYR214     -0.2864
     76  CB       -13.5210   91.1990   32.2700 C.3   214  TYR214      0.0560
     77  CG       -13.4810   92.2990   33.3180 C.ar  214  TYR214     -0.0198
     78  CD1      -12.3530   92.4800   34.1180 C.ar  214  TYR214     -0.0009
     79  CD2      -14.5170   93.2300   33.4250 C.ar  214  TYR214     -0.0009
     80  CE1      -12.2510   93.5760   34.9920 C.ar  214  TYR214      0.0417
     81  CE2      -14.4300   94.3250   34.2950 C.ar  214  TYR214      0.0417
     82  CZ       -13.2900   94.4910   35.0690 C.ar  214  TYR214      0.1957
     83  OH       -13.1680   95.5770   35.9050 O.3   214  TYR214     -0.2866
     84  N        -17.6700   87.3080   34.6480 N.3   217  VAL217     -0.1231
     85  CA       -17.2450   86.7290   35.9290 C.3   217  VAL217      0.1692
     86  C        -16.3690   87.5300   36.9000 C.2   217  VAL217      0.2592
     87  O        -15.9270   86.9760   37.9120 O.2   217  VAL217     -0.2718
     88  CB       -16.5270   85.3500   35.6950 C.3   217  VAL217      0.0266
     89  CG1      -17.4480   84.3660   34.9650 C.3   217  VAL217      0.0020
     90  CG2      -15.2240   85.5530   34.9090 C.3   217  VAL217      0.0020
     91  N        -16.1070   88.8040   36.6170 N.am  218  CYS218     -0.1970
     92  CA       -15.2590   89.5960   37.5140 C.3   218  CYS218      0.1712
     93  C        -15.7150   89.5600   38.9730 C.2   218  CYS218      0.2296
     94  O        -14.8910   89.4500   39.8730 O.2   218  CYS218     -0.2864
     95  CB       -15.1450   91.0500   37.0560 C.3   218  CYS218      0.0983
     96  SG       -13.9130   91.9830   38.0530 S.3   218  CYS218     -0.0798
     97  N        -14.3420   86.9880   41.4820 N.3   221  TYR221     -0.1241
     98  CA       -13.0130   87.2240   42.0460 C.3   221  TYR221      0.1605
     99  C        -13.0700   88.2270   43.1920 C.2   221  TYR221      0.2264
    100  O        -12.0520   88.5110   43.8250 O.2   221  TYR221     -0.2867
    101  CB       -12.0870   87.8010   40.9780 C.3   221  TYR221      0.0534
    102  CG       -11.7440   86.8500   39.8630 C.ar  221  TYR221     -0.0201
    103  CD1      -12.4860   86.8350   38.6840 C.ar  221  TYR221     -0.0009
    104  CD2      -10.6650   85.9790   39.9780 C.ar  221  TYR221     -0.0009
    105  CE1      -12.1660   85.9780   37.6440 C.ar  221  TYR221      0.0417
    106  CE2      -10.3310   85.1190   38.9390 C.ar  221  TYR221      0.0417
    107  CZ       -11.0810   85.1230   37.7740 C.ar  221  TYR221      0.1957
    108  OH       -10.7250   84.2900   36.7340 O.3   221  TYR221     -0.2866
    109  N         -6.4510   95.5120   42.4530 N.3   241  TRP241     -0.1241
    110  CA        -5.4880   94.7390   41.6850 C.3   241  TRP241      0.1605
    111  C         -4.3500   95.4920   41.0150 C.2   241  TRP241      0.2264
    112  O         -3.6000   94.9070   40.2350 O.2   241  TRP241     -0.2867
    113  CB        -6.2220   93.8530   40.6700 C.3   241  TRP241      0.0550
    114  CG        -7.2170   92.8980   41.3020 C.ar  241  TRP241      0.0003
    115  CD1       -7.0930   92.2490   42.5040 C.ar  241  TRP241      0.0946
    116  CD2       -8.5010   92.5150   40.7720 C.ar  241  TRP241      0.0152
    117  NE1       -8.2250   91.4950   42.7580 N.ar  241  TRP241     -0.2442
    118  CE2       -9.1000   91.6380   41.7130 C.ar  241  TRP241      0.0810
    119  CE3       -9.2020   92.8300   39.5970 C.ar  241  TRP241      0.0012
    120  CZ2      -10.3690   91.0750   41.5130 C.ar  241  TRP241      0.0191
    121  CZ3      -10.4670   92.2700   39.4000 C.ar  241  TRP241      0.0001
    122  CH2      -11.0350   91.4020   40.3560 C.ar  241  TRP241      0.0015
    123  N         -3.1060   88.3740   43.4010 N.3   281  MET281     -0.1245
    124  CA        -4.3500   87.6190   43.4850 C.3   281  MET281      0.1570
    125  C         -4.1580   86.1980   43.9850 C.2   281  MET281      0.2261
    126  O         -5.1930   85.5850   44.3450 O.2   281  MET281     -0.2867
    127  CB        -5.0620   87.6170   42.1310 C.3   281  MET281      0.0387
    128  CG        -5.4690   89.0100   41.6740 C.3   281  MET281      0.0595
    129  SD        -6.4670   89.0090   40.1910 S.3   281  MET281     -0.1393
    130  CE        -8.0090   88.2400   40.7830 C.3   281  MET281      0.0692
@<TRIPOS>BOND
     1    64    65    1
     2    71    70    1
     3    62    60    1
     4    68    65    1
     5    68    69    1
     6    46    47    1
     7    46    45    1
     8    65    66    1
     9    60    61    1
    10    60    57    1
    11    70    69    1
    12    47    41    1
    13    61    63    1
    14     1     2    1
    15    59    58    2
    16    45    42    1
    17    58    57    1
    18    66    72   am
    19    66    67    2
    20    72    73    1
    21    57    56    1
    22    41    42    1
    23    42    43    1
    24     2     5    1
    25     2     3    1
    26    40    39    1
    27    76    73    1
    28    76    77    1
    29    37    39   ar
    30    37    35   ar
    31     4     3    2
    32     8     9    1
    33     6     5    1
    34    73    74    1
    35    56    54   am
    36     5     7    1
    37    39    38   ar
    38    74    75    2
    39    35    34   ar
    40     9    12    1
    41     9    10    1
    42    77    79   ar
    43    77    78   ar
    44    51    50    2
    45    79    81   ar
    46    43    44    2
    47    43    48   am
    48    12    13    1
    49    54    55    2
    50    54    53    1
    51    48    49    1
    52    78    80   ar
    53    81    82   ar
    54    38    36   ar
    55    34    36   ar
    56    34    33    1
    57    32    31    2
    58    10    11    2
    59    10    14   am
    60    50    49    1
    61    50    52   am
    62    84    85    1
    63    53    52    1
    64    90    88    1
    65    89    88    1
    66    80    82   ar
    67    82    83    1
    68    30    33    1
    69    30    31    1
    70    30    29    1
    71    14    15    1
    72    88    85    1
    73    85    86    1
    74    27    26    1
    75    15    18    1
    76    15    16    1
    77    91    86   am
    78    91    92    1
    79   108   107    1
    80    86    87    2
    81    95    92    1
    82    95    96    1
    83    22    16   am
    84    22    23    1
    85    18    20    1
    86    18    19    1
    87    26    28    1
    88    26    23    1
    89    92    93    1
    90    16    17    2
    91   105   107   ar
    92   105   103   ar
    93   107   106   ar
    94    23    24    1
    95    24    25    2
    96    19    21    1
    97   103   102   ar
    98   106   104   ar
    99    93    94    2
   100   121   119   ar
   101   121   122   ar
   102   119   116   ar
   103   102   104   ar
   104   102   101    1
   105   129   130    1
   106   129   128    1
   107   112   111    2
   108   122   120   ar
   109   113   114    1
   110   113   110    1
   111   116   114   ar
   112   116   118   ar
   113   101    98    1
   114   111   110    1
   115   114   115   ar
   116    97    98    1
   117   120   118   ar
   118   128   127    1
   119   110   109    1
   120   118   117   ar
   121    98    99    1
   122   127   124    1
   123   115   117   ar
   124    99   100    2
   125   123   124    1
   126   124   125    1
   127   125   126    2
