@<TRIPOS>MOLECULE
tmp/1g0rC01.pdb
 102 94 0 0 0
SMALL
GASTEIGER

@<TRIPOS>ATOM
      1  N        105.0790   41.6510   78.2220 N.3     7  LEU7       -0.1245
      2  CA       105.2370   40.2840   77.7160 C.3     7  LEU7        0.1561
      3  C        104.3950   40.0470   76.4340 C.2     7  LEU7        0.2260
      4  O        103.1950   39.8390   76.4790 O.2     7  LEU7       -0.2867
      5  CB       104.9730   39.2680   78.8180 C.3     7  LEU7        0.0270
      6  CG       105.3480   37.8650   78.5190 C.3     7  LEU7        0.0019
      7  CD1      106.8240   37.7380   78.3710 C.3     7  LEU7        0.0001
      8  CD2      104.9210   36.9350   79.6110 C.3     7  LEU7        0.0001
      9  N        105.1910   37.6220   73.7490 N.3     9  GLY9       -0.1210
     10  CA       105.5870   36.4110   73.0470 C.3     9  GLY9        0.1956
     11  C        104.4310   35.4960   72.8060 C.2     9  GLY9        0.2612
     12  O        103.3300   35.9030   72.5760 O.2     9  GLY9       -0.2717
     13  N        104.7050   34.2240   72.8390 N.am   10  GLY10      -0.1956
     14  CA       103.6410   33.2520   72.8420 C.3    10  GLY10       0.1869
     15  C        103.5820   32.4560   71.5650 C.2    10  GLY10       0.2309
     16  O        103.9570   32.9350   70.4910 O.2    10  GLY10      -0.2863
     17  N        100.7070   37.6850   67.0670 N.3    24  LYS24      -0.1231
     18  CA        99.5390   38.4010   67.6630 C.3    24  LYS24       0.1693
     19  C         99.7850   39.8840   68.0520 C.2    24  LYS24       0.2591
     20  O         99.0510   40.7510   67.5760 O.2    24  LYS24      -0.2718
     21  CB        99.0190   37.5640   68.8780 C.3    24  LYS24       0.0285
     22  CG        98.0090   38.2250   69.9080 C.3    24  LYS24       0.0035
     23  CD        97.2700   37.2240   70.8010 C.3    24  LYS24       0.0206
     24  CE        98.2190   36.4520   71.7970 C.3    24  LYS24       0.1093
     25  NZ        97.6010   35.3840   72.7180 N.3    24  LYS24      -0.1314
     26  N        100.8760   40.2000   68.7440 N.am   25  GLN25      -0.1979
     27  CA       101.0470   41.5320   69.2350 C.3    25  GLN25       0.1601
     28  C        101.4700   42.5660   68.1410 C.2    25  GLN25       0.2287
     29  O        101.5280   43.7950   68.3950 O.2    25  GLN25      -0.2864
     30  CB       101.8840   41.6060   70.5350 C.3    25  GLN25       0.0394
     31  CG       101.4540   40.5990   71.7180 C.3    25  GLN25       0.0908
     32  CD       101.9780   39.1420   71.4780 C.2    25  GLN25       0.2608
     33  OE1      102.0490   38.2410   72.3850 O.2    25  GLN25      -0.2717
     34  NE2      102.2960   38.9010   70.2370 N.am   25  GLN25      -0.0878
     35  N        112.3250   35.7250   74.6980 N.3    81  GLN81      -0.1245
     36  CA       111.8800   34.5510   75.4230 C.3    81  GLN81       0.1566
     37  C        111.9440   33.3730   74.4620 C.2    81  GLN81       0.2260
     38  O        111.1510   33.2930   73.5520 O.2    81  GLN81      -0.2867
     39  CB       110.4120   34.7230   75.9340 C.3    81  GLN81       0.0367
     40  CG       109.9370   33.4740   76.7050 C.3    81  GLN81       0.0905
     41  CD       108.5000   33.6110   77.3210 C.2    81  GLN81       0.2608
     42  OE1      107.6450   34.2160   76.6900 O.2    81  GLN81      -0.2717
     43  NE2      108.2930   33.0680   78.5510 N.am   81  GLN81      -0.0878
     44  N        107.7160   29.8180   75.2570 N.3    84  PRO84      -0.2116
     45  CA       106.6630   30.3920   76.0980 C.3    84  PRO84       0.1372
     46  C        106.4020   29.5040   77.2970 C.2    84  PRO84       0.2244
     47  O        105.4090   28.8050   77.3630 O.2    84  PRO84      -0.2868
     48  CB       105.4670   30.4770   75.1440 C.3    84  PRO84       0.0268
     49  CG       105.6390   29.4270   74.1360 C.3    84  PRO84       0.0207
     50  CD       107.1690   29.1350   74.0730 C.3    84  PRO84       0.0892
     51  N        105.9310   30.3550   80.5090 N.3    86  GLY86      -0.1210
     52  CA       105.2380   30.9430   81.6280 C.3    86  GLY86       0.1956
     53  C        105.4110   32.4500   81.7870 C.2    86  GLY86       0.2611
     54  O        106.5190   33.0100   81.5450 O.2    86  GLY86      -0.2717
     55  N        104.3030   33.1460   82.1890 N.am   87  LEU87      -0.1979
     56  CA       104.3590   34.5760   82.3600 C.3    87  LEU87       0.1596
     57  C        105.3880   34.9700   83.3630 C.2    87  LEU87       0.2287
     58  O        106.0250   36.0110   83.2630 O.2    87  LEU87      -0.2864
     59  CB       103.0270   35.1060   82.8220 C.3    87  LEU87       0.0297
     60  CG       101.8000   34.7320   81.9710 C.3    87  LEU87       0.0022
     61  CD1      100.6050   35.5070   82.5660 C.3    87  LEU87       0.0001
     62  CD2      101.9960   35.0940   80.6190 C.3    87  LEU87       0.0001
     63  N        100.4510   42.2050   79.8910 N.3   107  LEU107     -0.1231
     64  CA       100.4180   41.2290   78.8390 C.3   107  LEU107      0.1693
     65  C        100.2310   41.9290   77.5000 C.2   107  LEU107      0.2593
     66  O         99.4120   42.8540   77.3370 O.2   107  LEU107     -0.2718
     67  CB        99.3500   40.1600   79.0690 C.3   107  LEU107      0.0284
     68  CG        99.4800   39.4040   80.3540 C.3   107  LEU107      0.0019
     69  CD1       98.4210   38.2700   80.4710 C.3   107  LEU107      0.0001
     70  CD2      100.9760   38.9140   80.6650 C.3   107  LEU107      0.0001
     71  N        100.9030   41.4130   76.5020 N.am  108  GLY108     -0.1942
     72  CA       100.9290   42.1070   75.2310 C.3   108  GLY108      0.2014
     73  C         99.6550   42.1200   74.4250 C.2   108  GLY108      0.2638
     74  O         99.5990   42.8830   73.4640 O.2   108  GLY108     -0.2714
     75  N         98.7480   41.2220   74.7240 N.am  109  ASP109     -0.1971
     76  CA        97.4850   41.1130   74.0730 C.3   109  ASP109      0.1709
     77  C         96.2810   41.6120   74.8750 C.2   109  ASP109      0.2293
     78  O         95.1960   41.3020   74.5210 O.2   109  ASP109     -0.2864
     79  CB        97.2610   39.7240   73.5460 C.3   109  ASP109      0.1436
     80  CG        96.9810   38.7190   74.5600 C.2   109  ASP109      0.3671
     81  OD1       97.0050   38.9200   75.7490 O.co2 109  ASP109     -0.2456
     82  OD2       96.6730   37.5820   74.1990 O.co2 109  ASP109     -0.2456
     83  N        100.7170   21.8810   84.1630 N.3   193  ARG193     -0.1245
     84  CA       100.6930   22.1520   82.7320 C.3   193  ARG193      0.1563
     85  C        102.0140   22.6650   82.2280 C.2   193  ARG193      0.2260
     86  O        102.0900   23.1660   81.1090 O.2   193  ARG193     -0.2867
     87  CB        99.5840   23.1490   82.3750 C.3   193  ARG193      0.0307
     88  CG        99.7330   24.5040   83.0110 C.3   193  ARG193      0.0489
     89  CD        99.2280   25.6220   82.0750 C.3   193  ARG193      0.2205
     90  NE        99.2040   26.9720   82.6630 N.pl3 193  ARG193     -0.0865
     91  CZ        98.7000   28.0120   82.0140 C.cat 193  ARG193      0.5346
     92  NH1       98.2350   27.8100   80.7900 N.pl3 193  ARG193      0.1354
     93  NH2       98.6510   29.2390   82.5540 N.pl3 193  ARG193      0.1354
     94  N        104.0730   25.3700   83.1080 N.3   195  GLU195     -0.1245
     95  CA       104.4360   26.7750   83.0310 C.3   195  GLU195      0.1567
     96  C        104.8160   27.3730   84.3950 C.2   195  GLU195      0.2260
     97  O        104.3760   26.9010   85.4600 O.2   195  GLU195     -0.2867
     98  CB       103.2890   27.5960   82.4130 C.3   195  GLU195      0.0388
     99  CG       102.6150   26.9880   81.1820 C.3   195  GLU195      0.1160
    100  CD       103.1900   27.4400   79.8620 C.2   195  GLU195      0.3649
    101  OE1      104.0650   28.3060   79.8220 O.co2 195  GLU195     -0.2457
    102  OE2      102.7160   26.9680   78.8390 O.co2 195  GLU195     -0.2457
@<TRIPOS>BOND
     1    17    18    1
     2    20    19    2
     3    18    19    1
     4    18    21    1
     5    19    26   am
     6    28    29    2
     7    28    27    1
     8    26    27    1
     9    21    22    1
    10    27    30    1
    11    22    23    1
    12    34    32   am
    13    16    15    2
    14    30    31    1
    15    23    24    1
    16    32    31    1
    17    32    33    2
    18    15    14    1
    19    24    25    1
    20    12    11    2
    21    11    13   am
    22    11    10    1
    23    13    14    1
    24    10     9    1
    25    74    73    2
    26    79    76    1
    27    79    80    1
    28    38    37    2
    29    50    49    1
    30    50    44    1
    31    76    75    1
    32    76    77    1
    33    49    48    1
    34    82    80   ar
    35    73    75   am
    36    73    72    1
    37    37    36    1
    38    78    77    2
    39    80    81   ar
    40    35    36    1
    41    48    45    1
    42    72    71    1
    43    44    45    1
    44    36    39    1
    45    39    40    1
    46    45    46    1
    47     3     4    2
    48     3     2    1
    49    71    65   am
    50    42    41    2
    51    40    41    1
    52    46    47    2
    53    41    43   am
    54    66    65    2
    55    65    64    1
    56     2     1    1
    57     2     5    1
    58     7     6    1
    59     6     5    1
    60     6     8    1
    61   102   100   ar
    62    64    67    1
    63    64    63    1
    64    67    68    1
    65   101   100   ar
    66   100    99    1
    67    68    69    1
    68    68    70    1
    69    51    52    1
    70    62    60    1
    71    92    91    1
    72    86    85    2
    73    99    98    1
    74    54    53    2
    75    52    53    1
    76    53    55   am
    77    60    61    1
    78    60    59    1
    79    91    93    1
    80    91    90    2
    81    89    90    1
    82    89    88    1
    83    55    56    1
    84    85    84    1
    85    56    59    1
    86    56    57    1
    87    87    84    1
    88    87    88    1
    89    98    95    1
    90    84    83    1
    91    95    94    1
    92    95    96    1
    93    58    57    2
    94    96    97    2
