@<TRIPOS>MOLECULE
tmp/1g0rC02.pdb
 136 135 0 0 0
SMALL
GASTEIGER

@<TRIPOS>ATOM
      1  N        100.5730   51.8510   75.8640 N.3    40  SER40      -0.1217
      2  CA        99.8590   53.0010   76.4110 C.3    40  SER40       0.1889
      3  C         99.4330   52.8490   77.8990 C.2    40  SER40       0.2288
      4  O         99.4360   53.8240   78.6380 O.2    40  SER40      -0.2866
      5  CB        98.6930   53.4290   75.4790 C.3    40  SER40       0.2089
      6  OG        97.5750   52.5200   75.6190 O.3    40  SER40      -0.2183
      7  N        100.3270   55.3940   80.7210 N.3    44  LEU44      -0.1245
      8  CA        99.2710   56.0650   81.5190 C.3    44  LEU44       0.1561
      9  C         99.5230   55.8500   83.0020 C.2    44  LEU44       0.2260
     10  O         99.0850   56.6480   83.8560 O.2    44  LEU44      -0.2867
     11  CB        97.9160   55.5510   81.1710 C.3    44  LEU44       0.0270
     12  CG        97.4390   56.0920   79.8240 C.3    44  LEU44       0.0019
     13  CD1       96.2950   55.1670   79.3540 C.3    44  LEU44       0.0001
     14  CD2       97.0940   57.5570   79.9290 C.3    44  LEU44       0.0001
     15  N         92.8720   47.5890   77.7820 N.3   112  TYR112     -0.1227
     16  CA        92.0700   48.1370   78.7990 C.3   112  TYR112      0.1736
     17  C         91.4960   49.4980   78.3290 C.2   112  TYR112      0.2595
     18  O         92.1200   50.2110   77.5980 O.2   112  TYR112     -0.2718
     19  CB        92.9000   48.4300   80.0610 C.3   112  TYR112      0.0548
     20  CG        93.5090   47.2490   80.7120 C.ar  112  TYR112     -0.0200
     21  CD1       94.7690   46.7960   80.3310 C.ar  112  TYR112     -0.0009
     22  CD2       92.8630   46.6370   81.7420 C.ar  112  TYR112     -0.0009
     23  CE1       95.3380   45.7320   80.9290 C.ar  112  TYR112      0.0417
     24  CE2       93.4110   45.5210   82.3440 C.ar  112  TYR112      0.0417
     25  CZ        94.6000   45.0280   81.8780 C.ar  112  TYR112      0.1957
     26  OH        95.1290   43.9510   82.4690 O.3   112  TYR112     -0.2866
     27  N         90.3320   49.8590   78.8480 N.am  113  TYR113     -0.1962
     28  CA        89.7060   51.1530   78.5120 C.3   113  TYR113      0.1774
     29  C         88.6190   51.5670   79.5200 C.2   113  TYR113      0.2659
     30  O         87.7110   50.7980   79.8450 O.2   113  TYR113     -0.2711
     31  CB        89.0690   51.1220   77.1560 C.3   113  TYR113      0.0574
     32  CG        88.8320   52.4990   76.6730 C.ar  113  TYR113     -0.0198
     33  CD1       89.8570   53.2180   76.0900 C.ar  113  TYR113     -0.0009
     34  CD2       87.6090   53.0710   76.8070 C.ar  113  TYR113     -0.0009
     35  CE1       89.7030   54.5500   75.7250 C.ar  113  TYR113      0.0417
     36  CE2       87.3800   54.4290   76.3780 C.ar  113  TYR113      0.0417
     37  CZ        88.4600   55.1430   75.8570 C.ar  113  TYR113      0.1957
     38  OH        88.3580   56.4570   75.4240 O.3   113  TYR113     -0.2866
     39  N         88.7030   52.8150   79.9910 N.am  114  GLY114     -0.1716
     40  CA        87.6830   53.3460   80.8290 C.2   114  GLY114      0.1480
     41  C         87.9870   54.6710   81.5040 C.2   114  GLY114      0.2820
     42  O         89.1350   55.1230   81.4920 O.2   114  GLY114     -0.2669
     43  N         86.9140   55.3220   81.9820 N.am  115  HIS115     -0.1925
     44  CA        86.9390   56.5940   82.7090 C.3   115  HIS115      0.1790
     45  C         87.7950   56.4520   83.9730 C.2   115  HIS115      0.2620
     46  O         87.6250   55.5540   84.7620 O.2   115  HIS115     -0.2715
     47  CB        85.5280   57.0960   82.9970 C.3   115  HIS115      0.0785
     48  CG        85.4750   58.3630   83.7890 C.ar  115  HIS115      0.0821
     49  ND1       86.0350   59.5410   83.3240 N.ar  115  HIS115     -0.2267
     50  CD2       85.2010   58.5620   85.0920 C.ar  115  HIS115      0.1154
     51  CE1       86.0030   60.4380   84.2770 C.ar  115  HIS115      0.1986
     52  NE2       85.4940   59.8760   85.3650 N.ar  115  HIS115     -0.2212
     53  N         88.7260   57.3930   84.1070 N.am  116  ASP116     -0.1957
     54  CA        89.6930   57.5350   85.1970 C.3   116  ASP116      0.1840
     55  C         90.6860   56.3690   85.3670 C.2   116  ASP116      0.2622
     56  O         91.0760   56.0260   86.4680 O.2   116  ASP116     -0.2715
     57  CB        88.8860   57.7570   86.4680 C.3   116  ASP116      0.1450
     58  CG        88.4810   59.2850   86.6440 C.2   116  ASP116      0.3671
     59  OD1       88.7100   60.1030   85.6510 O.co2 116  ASP116     -0.2456
     60  OD2       88.0660   59.7050   87.7590 O.co2 116  ASP116     -0.2456
     61  N         90.9240   55.6460   84.3080 N.am  117  PHE117     -0.1960
     62  CA        91.8340   54.5520   84.3670 C.3   117  PHE117      0.1771
     63  C         93.1850   55.0440   84.8640 C.2   117  PHE117      0.2619
     64  O         93.9050   54.2980   85.5670 O.2   117  PHE117     -0.2715
     65  CB        91.8940   53.9850   82.9490 C.3   117  PHE117      0.0574
     66  CG        92.7560   52.7720   82.7880 C.ar  117  PHE117     -0.0200
     67  CD1       92.5320   51.6530   83.4970 C.ar  117  PHE117     -0.0042
     68  CD2       93.6610   52.7410   81.8140 C.ar  117  PHE117     -0.0042
     69  CE1       93.3570   50.4860   83.3320 C.ar  117  PHE117     -0.0003
     70  CE2       94.4550   51.5450   81.5750 C.ar  117  PHE117     -0.0003
     71  CZ        94.2920   50.4560   82.3880 C.ar  117  PHE117     -0.0000
     72  N         93.5460   56.2720   84.5020 N.am  118  HIS118     -0.1973
     73  CA        94.7410   56.9940   84.9970 C.3   118  HIS118      0.1656
     74  C         94.8330   56.8660   86.5390 C.2   118  HIS118      0.2291
     75  O         95.8100   56.3660   87.1120 O.2   118  HIS118     -0.2864
     76  CB        94.6740   58.5300   84.6190 C.3   118  HIS118      0.0771
     77  CG        95.8550   59.3310   85.1000 C.ar  118  HIS118      0.0820
     78  ND1       97.1430   59.0320   84.7010 N.ar  118  HIS118     -0.2267
     79  CD2       95.9810   60.2210   86.1300 C.ar  118  HIS118      0.1154
     80  CE1       98.0030   59.6480   85.5060 C.ar  118  HIS118      0.1986
     81  NE2       97.3320   60.4640   86.3010 N.ar  118  HIS118     -0.2212
     82  N         91.3860   59.1620   69.5790 N.3   248  LYS248     -0.1231
     83  CA        91.8910   57.8170   69.3330 C.3   248  LYS248      0.1693
     84  C         92.3810   57.2540   70.6600 C.2   248  LYS248      0.2592
     85  O         92.7500   57.9950   71.5300 O.2   248  LYS248     -0.2718
     86  CB        92.9820   57.7930   68.2770 C.3   248  LYS248      0.0285
     87  CG        92.4430   58.0810   66.8510 C.3   248  LYS248      0.0035
     88  CD        93.5120   57.8410   65.8040 C.3   248  LYS248      0.0206
     89  CE        92.9920   58.0500   64.4400 C.3   248  LYS248      0.1093
     90  NZ        91.6120   58.7810   64.3440 N.3   248  LYS248     -0.1314
     91  N         92.2550   55.9410   70.8010 N.am  249  VAL249     -0.1966
     92  CA        92.6220   55.2150   71.9410 C.3   249  VAL249      0.1727
     93  C         94.0190   54.6720   71.7960 C.2   249  VAL249      0.2616
     94  O         94.3750   54.1540   70.7010 O.2   249  VAL249     -0.2715
     95  CB        91.6170   54.0340   72.1000 C.3   249  VAL249      0.0290
     96  CG1       91.9990   53.2210   73.2140 C.3   249  VAL249      0.0023
     97  CG2       90.2750   54.6480   72.3590 C.3   249  VAL249      0.0023
     98  N         94.8280   54.8580   72.8160 N.am  250  ALA250     -0.1963
     99  CA        96.1820   54.2270   72.8820 C.3   250  ALA250      0.1728
    100  C         97.0840   54.7360   71.7570 C.2   250  ALA250      0.2616
    101  O         97.8180   53.9420   71.1500 O.2   250  ALA250     -0.2715
    102  CB        96.1130   52.6890   72.8770 C.3   250  ALA250      0.0334
    103  N         97.0410   56.0550   71.5030 N.am  251  CYS251     -0.1968
    104  CA        97.9700   56.7120   70.5400 C.3   251  CYS251      0.1712
    105  C         99.1560   57.1790   71.4000 C.2   251  CYS251      0.2296
    106  O         99.0190   58.0390   72.2150 O.2   251  CYS251     -0.2864
    107  CB        97.2420   57.8610   69.7980 C.3   251  CYS251      0.0983
    108  SG        98.3390   59.0030   69.0600 S.3   251  CYS251     -0.0798
    109  N        100.1770   60.8740   71.5600 N.3   254  GLU254     -0.1231
    110  CA        99.2510   61.7330   72.1900 C.3   254  GLU254      0.1699
    111  C         99.5150   61.6440   73.6500 C.2   254  GLU254      0.2592
    112  O         99.6030   62.6540   74.3270 O.2   254  GLU254     -0.2718
    113  CB        97.7890   61.3860   71.8890 C.3   254  GLU254      0.0402
    114  CG        96.8270   62.0480   72.9040 C.3   254  GLU254      0.1161
    115  CD        95.3920   61.9310   72.5440 C.2   254  GLU254      0.3649
    116  OE1       95.0520   61.0160   71.7700 O.co2 254  GLU254     -0.2457
    117  OE2       94.6010   62.7690   73.0380 O.co2 254  GLU254     -0.2457
    118  N         99.7360   60.4180   74.1270 N.am  255  ILE255     -0.1980
    119  CA        99.8830   60.2040   75.5520 C.3   255  ILE255      0.1595
    120  C        101.1420   60.8360   76.0770 C.2   255  ILE255      0.2287
    121  O        101.1290   61.5490   77.1040 O.2   255  ILE255     -0.2864
    122  CB        99.7370   58.7320   75.8980 C.3   255  ILE255      0.0276
    123  CG1       98.2800   58.2790   75.7640 C.3   255  ILE255      0.0022
    124  CG2      100.2260   58.4840   77.3530 C.3   255  ILE255      0.0022
    125  CD1       98.1640   56.6710   75.6830 C.3   255  ILE255      0.0001
    126  N        100.5430   64.6950   76.1480 N.3   258  ARG258     -0.1245
    127  CA        99.6980   65.0450   77.2960 C.3   258  ARG258      0.1563
    128  C        100.4880   64.9420   78.5970 C.2   258  ARG258      0.2260
    129  O        100.3250   65.7530   79.4900 O.2   258  ARG258     -0.2867
    130  CB        98.4030   64.2010   77.3340 C.3   258  ARG258      0.0307
    131  CG        97.3850   64.7030   76.2780 C.3   258  ARG258      0.0489
    132  CD        96.0800   63.9370   76.1170 C.3   258  ARG258      0.2205
    133  NE        95.0460   64.3020   77.1020 N.pl3 258  ARG258     -0.0865
    134  CZ        94.3290   65.4330   77.0440 C.cat 258  ARG258      0.5346
    135  NH1       94.5930   66.3130   76.0820 N.pl3 258  ARG258      0.1354
    136  NH2       93.3930   65.7050   77.9550 N.pl3 258  ARG258      0.1354
@<TRIPOS>BOND
     1    90    89    1
     2    89    88    1
     3    88    87    1
     4    87    86    1
     5    86    83    1
     6   108   107    1
     7    83    82    1
     8    83    84    1
     9   107   104    1
    10   104   105    1
    11   104   103    1
    12    84    91   am
    13    84    85    2
    14    94    93    2
    15    91    92    1
    16   101   100    2
    17   105   106    2
    18   103   100   am
    19   109   110    1
    20   100    99    1
    21   116   115   ar
    22    93    92    1
    23    93    98   am
    24   113   110    1
    25   113   114    1
    26    92    95    1
    27    95    97    1
    28    95    96    1
    29   110   111    1
    30   115   114    1
    31   115   117   ar
    32    98    99    1
    33   102    99    1
    34   111   118   am
    35   111   112    2
    36   118   119    1
    37    38    37    1
    38     5     6    1
    39     5     2    1
    40   119   122    1
    41   119   120    1
    42   125   123    1
    43    35    37   ar
    44    35    33   ar
    45   123   122    1
    46    37    36   ar
    47     1     2    1
    48   122   124    1
    49   120   121    2
    50   135   134    1
    51    33    32   ar
    52   132   131    1
    53   132   133    1
    54   126   127    1
    55   131   130    1
    56    36    34   ar
    57     2     3    1
    58    32    34   ar
    59    32    31    1
    60   134   133    2
    61   134   136    1
    62    31    28    1
    63   127   130    1
    64   127   128    1
    65    18    17    2
    66    15    16    1
    67     3     4    2
    68    17    16    1
    69    17    27   am
    70    28    27    1
    71    28    29    1
    72   128   129    2
    73    16    19    1
    74    13    12    1
    75    29    30    2
    76    29    39    1
    77    12    14    1
    78    12    11    1
    79    39    40    2
    80    19    20    1
    81    21    20   ar
    82    21    23   ar
    83    20    22   ar
    84     7     8    1
    85    40    41    1
    86    23    25   ar
    87    11     8    1
    88    42    41    2
    89    41    43   am
    90     8     9    1
    91    70    68   ar
    92    70    71   ar
    93    22    24   ar
    94    68    66   ar
    95    25    24   ar
    96    25    26    1
    97    43    44    1
    98    71    69   ar
    99    44    47    1
   100    44    45    1
   101    66    65    1
   102    66    67   ar
   103    65    62    1
   104    47    48    1
   105     9    10    2
   106    49    48   ar
   107    49    51   ar
   108    69    67   ar
   109    48    50   ar
   110    45    53   am
   111    45    46    2
   112    53    54    1
   113    51    52   ar
   114    61    62    1
   115    61    55   am
   116    62    63    1
   117    72    63   am
   118    72    73    1
   119    76    73    1
   120    76    77    1
   121    78    77   ar
   122    78    80   ar
   123    63    64    2
   124    73    74    1
   125    50    52   ar
   126    77    79   ar
   127    54    55    1
   128    54    57    1
   129    55    56    2
   130    80    81   ar
   131    59    58   ar
   132    79    81   ar
   133    57    58    1
   134    74    75    2
   135    58    60   ar
