@<TRIPOS>MOLECULE
tmp/1g0rC00.pdb
 157 149 0 0 0
SMALL
GASTEIGER

@<TRIPOS>ATOM
      1  N        104.3030   33.1460   82.1890 N.3    87  LEU87      -0.1245
      2  CA       104.3590   34.5760   82.3600 C.3    87  LEU87       0.1561
      3  C        105.3880   34.9700   83.3630 C.2    87  LEU87       0.2260
      4  O        106.0250   36.0110   83.2630 O.2    87  LEU87      -0.2867
      5  CB       103.0270   35.1060   82.8220 C.3    87  LEU87       0.0270
      6  CG       101.8000   34.7320   81.9710 C.3    87  LEU87       0.0019
      7  CD1      100.6050   35.5070   82.5660 C.3    87  LEU87       0.0001
      8  CD2      101.9960   35.0940   80.6190 C.3    87  LEU87       0.0001
      9  N        100.4510   42.2050   79.8910 N.3   107  LEU107     -0.1245
     10  CA       100.4180   41.2290   78.8390 C.3   107  LEU107      0.1561
     11  C        100.2310   41.9290   77.5000 C.2   107  LEU107      0.2260
     12  O         99.4120   42.8540   77.3370 O.2   107  LEU107     -0.2867
     13  CB        99.3500   40.1600   79.0690 C.3   107  LEU107      0.0270
     14  CG        99.4800   39.4040   80.3540 C.3   107  LEU107      0.0019
     15  CD1       98.4210   38.2700   80.4710 C.3   107  LEU107      0.0001
     16  CD2      100.9760   38.9140   80.6650 C.3   107  LEU107      0.0001
     17  N         98.7480   41.2220   74.7240 N.3   109  ASP109     -0.1225
     18  CA        97.4850   41.1130   74.0730 C.3   109  ASP109      0.1805
     19  C         96.2810   41.6120   74.8750 C.2   109  ASP109      0.2597
     20  O         95.1960   41.3020   74.5210 O.2   109  ASP109     -0.2718
     21  CB        97.2610   39.7240   73.5460 C.3   109  ASP109      0.1424
     22  CG        96.9810   38.7190   74.5600 C.2   109  ASP109      0.3668
     23  OD1       97.0050   38.9200   75.7490 O.co2 109  ASP109     -0.2456
     24  OD2       96.6730   37.5820   74.1990 O.co2 109  ASP109     -0.2456
     25  N         96.5170   42.3760   75.9260 N.am  110  ASN110     -0.1974
     26  CA        95.4940   42.8610   76.8230 C.3   110  ASN110      0.1688
     27  C         95.2450   44.3610   76.4760 C.2   110  ASN110      0.2292
     28  O         96.1420   45.1590   76.2610 O.2   110  ASN110     -0.2864
     29  CB        95.8850   42.7700   78.3030 C.3   110  ASN110      0.1181
     30  CG        95.6110   41.4010   78.9200 C.2   110  ASN110      0.2629
     31  OD1       95.2190   41.3240   80.0420 O.2   110  ASN110     -0.2716
     32  ND2       95.7910   40.3310   78.1350 N.am  110  ASN110     -0.0877
     33  N         88.9100   30.3470   82.0830 N.3   143  ARG143     -0.1231
     34  CA        90.0270   30.6180   81.2260 C.3   143  ARG143      0.1694
     35  C         91.1690   31.4940   81.7380 C.2   143  ARG143      0.2592
     36  O         92.1640   31.7780   81.0070 O.2   143  ARG143     -0.2718
     37  CB        89.4780   31.3890   80.0280 C.3   143  ARG143      0.0321
     38  CG        88.6000   30.5240   79.1430 C.3   143  ARG143      0.0489
     39  CD        88.1840   31.2650   77.8780 C.3   143  ARG143      0.2205
     40  NE        89.2460   32.1880   77.4290 N.pl3 143  ARG143     -0.0865
     41  CZ        89.0560   33.4940   77.1470 C.cat 143  ARG143      0.5346
     42  NH1       87.8250   34.0750   77.2970 N.pl3 143  ARG143      0.1354
     43  NH2       90.1070   34.2230   76.7050 N.pl3 143  ARG143      0.1354
     44  N         91.0400   31.9210   82.9810 N.am  144  TYR144     -0.1962
     45  CA        91.9170   32.8620   83.5550 C.3   144  TYR144      0.1771
     46  C         92.3970   32.4540   84.9660 C.2   144  TYR144      0.2620
     47  O         91.9910   31.4420   85.4710 O.2   144  TYR144     -0.2715
     48  CB        91.1170   34.1170   83.7260 C.3   144  TYR144      0.0574
     49  CG        90.6220   34.6050   82.4230 C.ar  144  TYR144     -0.0198
     50  CD1       89.3390   34.4500   82.0800 C.ar  144  TYR144     -0.0009
     51  CD2       91.5070   35.1430   81.4830 C.ar  144  TYR144     -0.0009
     52  CE1       88.8940   34.8430   80.8450 C.ar  144  TYR144      0.0417
     53  CE2       91.0610   35.5800   80.2250 C.ar  144  TYR144      0.0417
     54  CZ        89.7650   35.4180   79.9220 C.ar  144  TYR144      0.1957
     55  OH        89.4120   35.8600   78.6590 O.3   144  TYR144     -0.2866
     56  N         93.2880   33.2580   85.5380 N.am  145  GLY145     -0.1954
     57  CA        93.5380   33.3240   86.9950 C.3   145  GLY145      0.1869
     58  C         92.2340   33.7950   87.6290 C.2   145  GLY145      0.2309
     59  O         91.6400   34.7820   87.1300 O.2   145  GLY145     -0.2863
     60  N         94.5740   29.1400   89.0630 N.3   160  GLU160     -0.1231
     61  CA        94.7690   29.3080   87.6370 C.3   160  GLU160      0.1699
     62  C         93.9210   28.3180   86.8540 C.2   160  GLU160      0.2592
     63  O         94.0270   27.1280   87.0670 O.2   160  GLU160     -0.2718
     64  CB        96.2610   29.0680   87.3010 C.3   160  GLU160      0.0402
     65  CG        96.6690   29.2710   85.8260 C.3   160  GLU160      0.1161
     66  CD        96.3710   30.6440   85.2070 C.2   160  GLU160      0.3649
     67  OE1       96.1640   31.6380   85.9030 O.co2 160  GLU160     -0.2457
     68  OE2       96.3000   30.7170   83.9600 O.co2 160  GLU160     -0.2457
     69  N         93.0690   28.8130   85.9880 N.am  161  LYS161     -0.1980
     70  CA        92.1710   28.0330   85.1700 C.3   161  LYS161      0.1596
     71  C         91.4300   26.8510   85.8970 C.2   161  LYS161      0.2287
     72  O         91.4310   25.7380   85.3820 O.2   161  LYS161     -0.2864
     73  CB        92.9250   27.4900   83.9480 C.3   161  LYS161      0.0298
     74  CG        93.5640   28.5420   83.0360 C.3   161  LYS161      0.0038
     75  CD        94.1780   27.9850   81.7310 C.3   161  LYS161      0.0206
     76  CE        94.6150   29.1500   80.7940 C.3   161  LYS161      0.1093
     77  NZ        95.8870   29.7540   81.2620 N.3   161  LYS161     -0.1314
     78  N         91.6590   37.6110   87.2430 N.3   171  VAL171     -0.1245
     79  CA        92.7480   38.5090   87.5000 C.3   171  VAL171      0.1561
     80  C         93.2760   38.9020   86.1540 C.2   171  VAL171      0.2260
     81  O         93.6660   38.0620   85.3750 O.2   171  VAL171     -0.2867
     82  CB        93.9140   37.8200   88.2710 C.3   171  VAL171      0.0252
     83  CG1       95.1140   38.7990   88.4260 C.3   171  VAL171      0.0019
     84  CG2       93.3740   37.2200   89.6400 C.3   171  VAL171      0.0019
     85  N         95.6330   40.9050   83.1090 N.3   173  GLY173     -0.1225
     86  CA        97.0760   40.7930   82.7460 C.3   173  GLY173      0.1811
     87  C         97.8030   42.0950   83.0040 C.2   173  GLY173      0.2280
     88  O         98.4770   42.5970   82.0810 O.2   173  GLY173     -0.2866
     89  N         99.9780   43.6610   86.3620 N.3   175  TYR175     -0.1241
     90  CA       100.4460   43.3610   87.6900 C.3   175  TYR175      0.1605
     91  C        101.5140   44.3600   88.1300 C.2   175  TYR175      0.2264
     92  O        102.4160   44.7630   87.3280 O.2   175  TYR175     -0.2867
     93  CB       101.0530   41.9810   87.6790 C.3   175  TYR175      0.0534
     94  CG       100.2660   40.9380   86.8630 C.ar  175  TYR175     -0.0201
     95  CD1      100.5890   40.6770   85.5280 C.ar  175  TYR175     -0.0009
     96  CD2       99.2620   40.1740   87.4540 C.ar  175  TYR175     -0.0009
     97  CE1       99.8520   39.6660   84.7880 C.ar  175  TYR175      0.0417
     98  CE2       98.5550   39.1700   86.7160 C.ar  175  TYR175      0.0417
     99  CZ        98.8380   38.9720   85.4220 C.ar  175  TYR175      0.1957
    100  OH        98.2800   37.9600   84.6730 O.3   175  TYR175     -0.2866
    101  N        100.7170   21.8810   84.1630 N.3   193  ARG193     -0.1245
    102  CA       100.6930   22.1520   82.7320 C.3   193  ARG193      0.1563
    103  C        102.0140   22.6650   82.2280 C.2   193  ARG193      0.2260
    104  O        102.0900   23.1660   81.1090 O.2   193  ARG193     -0.2867
    105  CB        99.5840   23.1490   82.3750 C.3   193  ARG193      0.0307
    106  CG        99.7330   24.5040   83.0110 C.3   193  ARG193      0.0489
    107  CD        99.2280   25.6220   82.0750 C.3   193  ARG193      0.2205
    108  NE        99.2040   26.9720   82.6630 N.pl3 193  ARG193     -0.0865
    109  CZ        98.7000   28.0120   82.0140 C.cat 193  ARG193      0.5346
    110  NH1       98.2350   27.8100   80.7900 N.pl3 193  ARG193      0.1354
    111  NH2       98.6510   29.2390   82.5540 N.pl3 193  ARG193      0.1354
    112  N        104.0480   30.0500   86.4980 N.3   197  GLU197     -0.1231
    113  CA       102.7480   30.7610   86.4960 C.3   197  GLU197      0.1699
    114  C        102.8140   32.0390   87.2790 C.2   197  GLU197      0.2592
    115  O        103.2390   32.0620   88.3910 O.2   197  GLU197     -0.2718
    116  CB       101.6730   29.9130   87.1510 C.3   197  GLU197      0.0402
    117  CG       101.4660   28.5070   86.6620 C.3   197  GLU197      0.1161
    118  CD       100.7000   28.3830   85.3550 C.2   197  GLU197      0.3649
    119  OE1      100.2470   29.4230   84.7590 O.co2 197  GLU197     -0.2457
    120  OE2      100.5170   27.2050   84.9360 O.co2 197  GLU197     -0.2457
    121  N        102.3010   33.1080   86.6920 N.am  198  ILE198     -0.1966
    122  CA       102.1210   34.3560   87.4110 C.3   198  ILE198      0.1727
    123  C        101.1740   34.2070   88.5950 C.2   198  ILE198      0.2616
    124  O        101.3320   34.8680   89.6110 O.2   198  ILE198     -0.2715
    125  CB       101.6920   35.4250   86.4840 C.3   198  ILE198      0.0290
    126  CG1      101.9760   36.8080   87.1030 C.3   198  ILE198      0.0022
    127  CG2      100.2360   35.4060   86.2180 C.3   198  ILE198      0.0023
    128  CD1      103.4400   37.1200   87.0950 C.3   198  ILE198      0.0001
    129  N        100.1820   33.3460   88.4380 N.am  199  THR199     -0.1951
    130  CA        99.2330   33.0260   89.5360 C.3   199  THR199      0.1897
    131  C        100.0460   32.5980   90.7790 C.2   199  THR199      0.2313
    132  O         99.7340   32.9750   91.8800 O.2   199  THR199     -0.2863
    133  CB        98.1890   32.1010   89.0500 C.3   199  THR199      0.1794
    134  OG1       97.3460   32.8500   88.1030 O.3   199  THR199     -0.2208
    135  CG2       97.2190   31.6930   90.1360 C.3   199  THR199      0.0378
    136  N         87.8180   45.4940   79.6760 N.3   222  TRP222     -0.1241
    137  CA        89.0680   44.7340   79.6950 C.3   222  TRP222      0.1605
    138  C         88.8930   43.5970   78.6650 C.2   222  TRP222      0.2264
    139  O         88.0270   42.7760   78.7730 O.2   222  TRP222     -0.2867
    140  CB        89.4620   44.1570   81.0490 C.3   222  TRP222      0.0550
    141  CG        90.6100   43.2350   80.9410 C.ar  222  TRP222      0.0003
    142  CD1       91.8320   43.5160   80.4570 C.ar  222  TRP222      0.0946
    143  CD2       90.6540   41.8280   81.3220 C.ar  222  TRP222      0.0152
    144  NE1       92.6050   42.3690   80.4390 N.ar  222  TRP222     -0.2442
    145  CE2       91.9270   41.3410   81.0080 C.ar  222  TRP222      0.0810
    146  CE3       89.7510   40.9600   81.9250 C.ar  222  TRP222      0.0012
    147  CZ2       92.2670   40.0220   81.1800 C.ar  222  TRP222      0.0191
    148  CZ3       90.0690   39.7690   82.1410 C.ar  222  TRP222      0.0001
    149  CH2       91.3540   39.2630   81.8340 C.ar  222  TRP222      0.0015
    150  N         90.7850   40.8180   75.6890 N.3   224  ASP224     -0.1239
    151  CA        92.0810   40.2300   75.2460 C.3   224  ASP224      0.1674
    152  C         91.8510   39.7510   73.8300 C.2   224  ASP224      0.2266
    153  O         90.7350   39.5620   73.4080 O.2   224  ASP224     -0.2867
    154  CB        92.7030   39.1680   76.1370 C.3   224  ASP224      0.1410
    155  CG        91.8170   37.9780   76.3190 C.2   224  ASP224      0.3668
    156  OD1       91.7710   37.1530   75.3400 O.co2 224  ASP224     -0.2456
    157  OD2       91.1550   37.7650   77.3680 O.co2 224  ASP224     -0.2456
@<TRIPOS>BOND
     1   153   152    2
     2    21    18    1
     3    21    22    1
     4   152   151    1
     5    18    17    1
     6    18    19    1
     7    24    22   ar
     8    20    19    2
     9    22    23   ar
    10    19    25   am
    11   151   150    1
    12   151   154    1
    13   156   155   ar
    14    25    26    1
    15   154   155    1
    16    28    27    2
    17   155   157   ar
    18    27    26    1
    19    43    41    1
    20    26    29    1
    21    41    42    1
    22    41    40    2
    23    12    11    2
    24    40    39    1
    25    11    10    1
    26    39    38    1
    27    32    30   am
    28    29    30    1
    29    55    54    1
    30   138   139    2
    31   138   137    1
    32    10    13    1
    33    10     9    1
    34    30    31    2
    35    13    14    1
    36    38    37    1
    37   136   137    1
    38   137   140    1
    39    54    53   ar
    40    54    52   ar
    41    37    34    1
    42    53    51   ar
    43    14    15    1
    44    14    16    1
    45   144   142   ar
    46   144   145   ar
    47   142   141   ar
    48     8     6    1
    49   110   109    1
    50    76    77    1
    51    76    75    1
    52    52    50   ar
    53   141   140    1
    54   141   143   ar
    55    36    35    2
    56   145   147   ar
    57   145   143   ar
    58   104   103    2
    59   147   149   ar
    60    34    35    1
    61    34    33    1
    62   143   146   ar
    63    51    49   ar
    64    75    74    1
    65    35    44   am
    66   149   148   ar
    67   146   148   ar
    68     6     7    1
    69     6     5    1
    70   109   111    1
    71   109   108    2
    72   107   108    1
    73   107   106    1
    74    50    49   ar
    75    88    87    2
    76     1     2    1
    77   103   102    1
    78     2     5    1
    79     2     3    1
    80   105   102    1
    81   105   106    1
    82    49    48    1
    83   102   101    1
    84    86    87    1
    85    86    85    1
    86    44    45    1
    87    74    73    1
    88     4     3    2
    89    45    48    1
    90    45    46    1
    91    73    70    1
    92    68    66   ar
    93   100    99    1
    94   119   118   ar
    95    97    99   ar
    96    97    95   ar
    97   120   118   ar
    98    46    47    2
    99    46    56   am
   100    70    71    1
   101    70    69    1
   102    66    65    1
   103    66    67   ar
   104   118   117    1
   105    81    80    2
   106    72    71    2
   107    99    98   ar
   108    95    94   ar
   109    56    57    1
   110    65    64    1
   111    69    62   am
   112    80    79    1
   113   127   125    1
   114    89    90    1
   115   125   126    1
   116   125   122    1
   117   113   112    1
   118   113   116    1
   119   113   114    1
   120   117   116    1
   121   121   114   am
   122   121   122    1
   123    98    96   ar
   124    62    63    2
   125    62    61    1
   126    94    96   ar
   127    94    93    1
   128    57    58    1
   129   128   126    1
   130    59    58    2
   131    78    79    1
   132   114   115    2
   133    64    61    1
   134    92    91    2
   135   122   123    1
   136    79    82    1
   137    61    60    1
   138    93    90    1
   139    90    91    1
   140   134   133    1
   141    82    83    1
   142    82    84    1
   143   129   123   am
   144   129   130    1
   145   123   124    2
   146   133   130    1
   147   133   135    1
   148   130   131    1
   149   131   132    2
