@<TRIPOS>MOLECULE
tmp/1g17B00.pdb
 180 176 0 0 0
SMALL
GASTEIGER

@<TRIPOS>ATOM
      1  N         16.6170   23.2050   25.8780 N.3    11  SER11      -0.1202
      2  CA        15.3150   23.8170   26.0810 C.3    11  SER11       0.2020
      3  C         14.3020   22.6880   26.0800 C.2    11  SER11       0.2619
      4  O         14.3490   21.8180   25.2120 O.2    11  SER11      -0.2717
      5  CB        14.9940   24.7820   24.9310 C.3    11  SER11       0.2103
      6  OG        13.6350   25.2110   24.9770 O.3    11  SER11      -0.2182
      7  N         13.3960   22.6970   27.0550 N.am   12  GLY12      -0.1942
      8  CA        12.3650   21.6750   27.1230 C.3    12  GLY12       0.2014
      9  C         12.5800   20.4670   28.0130 C.2    12  GLY12       0.2639
     10  O         11.6670   19.6460   28.1440 O.2    12  GLY12      -0.2714
     11  N         13.7600   20.3330   28.6170 N.am   13  VAL13      -0.1963
     12  CA        14.0320   19.1780   29.4700 C.3    13  VAL13       0.1727
     13  C         13.3350   19.2380   30.8200 C.2    13  VAL13       0.2617
     14  O         13.1950   18.2070   31.4860 O.2    13  VAL13      -0.2715
     15  CB        15.5600   18.9620   29.6840 C.3    13  VAL13       0.0290
     16  CG1       16.2360   18.7910   28.3320 C.3    13  VAL13       0.0023
     17  CG2       16.1690   20.1290   30.4650 C.3    13  VAL13       0.0023
     18  N         12.9060   20.4340   31.2240 N.am   14  GLY14      -0.1940
     19  CA        12.2000   20.5850   32.4920 C.3    14  GLY14       0.2014
     20  C         12.9170   21.3330   33.6010 C.2    14  GLY14       0.2639
     21  O         12.5790   21.1690   34.7720 O.2    14  GLY14      -0.2714
     22  N         13.9000   22.1590   33.2580 N.am   15  LYS15      -0.1963
     23  CA        14.6330   22.8890   34.2860 C.3    15  LYS15       0.1728
     24  C         13.6950   23.7630   35.1060 C.2    15  LYS15       0.2617
     25  O         13.7230   23.7370   36.3390 O.2    15  LYS15      -0.2715
     26  CB        15.7290   23.7610   33.6490 C.3    15  LYS15       0.0311
     27  CG        16.7160   22.9890   32.7750 C.3    15  LYS15       0.0038
     28  CD        17.7740   23.9050   32.1420 C.3    15  LYS15       0.0206
     29  CE        17.1740   24.8960   31.1470 C.3    15  LYS15       0.1093
     30  NZ        16.5940   24.2490   29.9100 N.3    15  LYS15      -0.1314
     31  N         12.8500   24.5340   34.4240 N.am   16  SER16      -0.1936
     32  CA        11.9380   25.4260   35.1180 C.3    16  SER16       0.2055
     33  C         10.9110   24.6590   35.9470 C.2    16  SER16       0.2643
     34  O         10.5650   25.0740   37.0560 O.2    16  SER16      -0.2714
     35  CB        11.2380   26.3490   34.1150 C.3    16  SER16       0.2130
     36  OG        12.1780   27.1930   33.4580 O.3    16  SER16      -0.2179
     37  N         10.4290   23.5360   35.4310 N.am   17  CYS17      -0.1967
     38  CA         9.4540   22.7650   36.1900 C.3    17  CYS17       0.1712
     39  C         10.0390   22.1150   37.4400 C.2    17  CYS17       0.2296
     40  O          9.3270   21.9260   38.4350 O.2    17  CYS17      -0.2864
     41  CB         8.8000   21.7010   35.3080 C.3    17  CYS17       0.0983
     42  SG         7.5480   22.3840   34.1980 S.3    17  CYS17      -0.0798
     43  N          3.2820   22.4050   39.3140 N.3    27  PHE27      -0.1227
     44  CA         3.7690   21.8620   38.0600 C.3    27  PHE27       0.1736
     45  C          2.9920   22.4710   36.9020 C.2    27  PHE27       0.2595
     46  O          1.7720   22.3490   36.8480 O.2    27  PHE27      -0.2718
     47  CB         3.6130   20.3420   38.0290 C.3    27  PHE27       0.0547
     48  CG         3.9820   19.7300   36.7080 C.ar   27  PHE27      -0.0202
     49  CD1        5.2860   19.8140   36.2260 C.ar   27  PHE27      -0.0042
     50  CD2        3.0190   19.0930   35.9300 C.ar   27  PHE27      -0.0042
     51  CE1        5.6280   19.2700   34.9780 C.ar   27  PHE27      -0.0003
     52  CE2        3.3470   18.5470   34.6830 C.ar   27  PHE27      -0.0003
     53  CZ         4.6540   18.6350   34.2060 C.ar   27  PHE27      -0.0000
     54  N          3.6930   23.1430   35.9900 N.am   28  ASN28      -0.1961
     55  CA         3.0370   23.7270   34.8240 C.3    28  ASN28       0.1804
     56  C          3.0690   22.7210   33.6760 C.2    28  ASN28       0.2463
     57  O          4.1410   22.3310   33.2060 O.2    28  ASN28      -0.2730
     58  CB         3.7270   25.0210   34.3960 C.3    28  ASN28       0.1195
     59  CG         3.4660   26.1560   35.3590 C.2    28  ASN28       0.2630
     60  OD1        3.9920   26.1770   36.4760 O.2    28  ASN28      -0.2716
     61  ND2        2.6300   27.1080   34.9390 N.am   28  ASN28      -0.0877
     62  N          1.8880   22.2900   33.2090 N.am   29  PRO29      -0.2716
     63  CA         1.7960   21.3220   32.1130 C.3    29  PRO29       0.1536
     64  C          2.1530   21.9830   30.7830 C.2    29  PRO29       0.2599
     65  O          2.4940   21.3130   29.8080 O.2    29  PRO29      -0.2715
     66  CB         0.3230   20.8790   32.1520 C.3    29  PRO29       0.0310
     67  CG        -0.2120   21.4120   33.4510 C.3    29  PRO29       0.0237
     68  CD         0.5460   22.6920   33.6470 C.3    29  PRO29       0.0939
     69  N          2.0690   23.3060   30.7580 N.am   30  SER30      -0.1936
     70  CA         2.3730   24.0600   29.5560 C.3    30  SER30       0.2055
     71  C          3.8590   24.3610   29.4600 C.2    30  SER30       0.2643
     72  O          4.5890   24.3070   30.4510 O.2    30  SER30      -0.2714
     73  CB         1.5820   25.3700   29.5220 C.3    30  SER30       0.2130
     74  OG         2.1310   26.3340   30.4050 O.3    30  SER30      -0.2179
     75  N          4.2930   24.6760   28.2480 N.am   31  PHE31      -0.1959
     76  CA         5.6870   24.9890   27.9790 C.3    31  PHE31       0.1771
     77  C          5.8260   26.5020   27.9200 C.2    31  PHE31       0.2619
     78  O          5.3960   27.1270   26.9560 O.2    31  PHE31      -0.2715
     79  CB         6.0850   24.3720   26.6330 C.3    31  PHE31       0.0574
     80  CG         7.5670   24.3000   26.3920 C.ar   31  PHE31      -0.0200
     81  CD1        8.4170   25.3250   26.8010 C.ar   31  PHE31      -0.0042
     82  CD2        8.1050   23.2220   25.6830 C.ar   31  PHE31      -0.0042
     83  CE1        9.7800   25.2800   26.5000 C.ar   31  PHE31      -0.0003
     84  CE2        9.4510   23.1680   25.3760 C.ar   31  PHE31      -0.0003
     85  CZ        10.2970   24.2030   25.7840 C.ar   31  PHE31      -0.0000
     86  N          6.4280   27.0840   28.9540 N.am   32  ILE32      -0.1963
     87  CA         6.6500   28.5280   29.0200 C.3    32  ILE32       0.1727
     88  C          8.1570   28.7610   29.0710 C.2    32  ILE32       0.2617
     89  O          8.7440   28.9530   30.1310 O.2    32  ILE32      -0.2715
     90  CB         5.9910   29.1360   30.2720 C.3    32  ILE32       0.0290
     91  CG1        4.4830   28.8820   30.2220 C.3    32  ILE32       0.0022
     92  CG2        6.3120   30.6320   30.3600 C.3    32  ILE32       0.0023
     93  CD1        3.7210   29.4640   31.3900 C.3    32  ILE32       0.0001
     94  N          8.7640   28.7500   27.8940 N.am   33  THR33      -0.1937
     95  CA        10.1940   28.8990   27.7360 C.3    33  THR33       0.2028
     96  C         10.8150   30.0510   28.5370 C.2    33  THR33       0.2642
     97  O         10.2090   31.1050   28.7040 O.2    33  THR33      -0.2714
     98  CB        10.5310   29.0150   26.2280 C.3    33  THR33       0.1808
     99  OG1       11.9320   28.8080   26.0370 O.3    33  THR33      -0.2208
    100  CG2       10.1470   30.3870   25.6820 C.3    33  THR33       0.0379
    101  N         12.0260   29.8260   29.0440 N.am   34  THR34      -0.1950
    102  CA        12.7460   30.8260   29.8320 C.3    34  THR34       0.1897
    103  C         13.5690   31.7690   28.9520 C.2    34  THR34       0.2313
    104  O         14.3570   31.3330   28.1140 O.2    34  THR34      -0.2863
    105  CB        13.6700   30.1320   30.8590 C.3    34  THR34       0.1794
    106  OG1       12.8730   29.3190   31.7350 O.3    34  THR34      -0.2208
    107  CG2       14.4320   31.1620   31.6960 C.3    34  THR34       0.0378
    108  N         18.3670   28.7870   33.9130 N.3    58  THR58      -0.1218
    109  CA        18.8480   29.3140   32.6400 C.3    58  THR58       0.1862
    110  C         17.9960   28.9230   31.4360 C.2    58  THR58       0.2287
    111  O         17.2110   27.9790   31.4940 O.2    58  THR58      -0.2866
    112  CB        20.2860   28.8510   32.3620 C.3    58  THR58       0.1770
    113  OG1       20.2900   27.4470   32.0670 O.3    58  THR58      -0.2211
    114  CG2       21.1710   29.1010   33.5820 C.3    58  THR58       0.0375
    115  N         17.3560   27.3290   27.8580 N.3    60  GLY60      -0.1210
    116  CA        17.9310   26.2540   27.0670 C.3    60  GLY60       0.1956
    117  C         18.0840   26.6600   25.6130 C.2    60  GLY60       0.2611
    118  O         18.9300   26.1210   24.8980 O.2    60  GLY60      -0.2717
    119  N         17.2620   27.6080   25.1640 N.am   61  GLN61      -0.1979
    120  CA        17.3470   28.0790   23.7810 C.3    61  GLN61       0.1601
    121  C         18.7490   28.5810   23.4070 C.2    61  GLN61       0.2287
    122  O         19.3720   29.3520   24.1400 O.2    61  GLN61      -0.2864
    123  CB        16.3320   29.1950   23.5250 C.3    61  GLN61       0.0394
    124  CG        14.8810   28.7430   23.5120 C.3    61  GLN61       0.0908
    125  CD        13.9430   29.8410   23.0400 C.2    61  GLN61       0.2608
    126  OE1       14.1180   30.3890   21.9540 O.2    61  GLN61      -0.2717
    127  NE2       12.9460   30.1660   23.8530 N.am   61  GLN61      -0.0878
    128  N         15.4800   13.7990   33.7730 N.3   115  ASN115     -0.1225
    129  CA        14.1360   14.2120   34.1560 C.3   115  ASN115      0.1785
    130  C         13.0190   13.6120   33.3050 C.2   115  ASN115      0.2597
    131  O         13.2360   13.1950   32.1700 O.2   115  ASN115     -0.2718
    132  CB        14.0610   15.7400   34.1180 C.3   115  ASN115      0.1169
    133  CG        12.7330   16.2740   34.6000 C.2   115  ASN115      0.2627
    134  OD1       12.2570   15.8950   35.6610 O.2   115  ASN115     -0.2716
    135  ND2       12.1290   17.1710   33.8230 N.am  115  ASN115     -0.0877
    136  N         11.8240   13.5820   33.8890 N.am  116  LYS116     -0.1980
    137  CA        10.6120   13.0470   33.2680 C.3   116  LYS116      0.1596
    138  C         10.5440   11.5320   33.3740 C.2   116  LYS116      0.2287
    139  O         10.0690   10.8650   32.4570 O.2   116  LYS116     -0.2864
    140  CB        10.5110   13.4590   31.7890 C.3   116  LYS116      0.0298
    141  CG        10.5130   14.9650   31.5650 C.3   116  LYS116      0.0038
    142  CD        10.1320   15.3370   30.1360 C.3   116  LYS116      0.0206
    143  CE        10.1940   16.8320   29.9310 C.3   116  LYS116      0.1093
    144  NZ         9.9520   17.2010   28.4970 N.3   116  LYS116     -0.1314
    145  N          8.6010    9.8640   34.7330 N.3   118  ASP118     -0.1225
    146  CA         7.1940    9.4690   34.7720 C.3   118  ASP118      0.1805
    147  C          6.6430    9.0530   33.4030 C.2   118  ASP118      0.2597
    148  O          5.5440    8.5010   33.3230 O.2   118  ASP118     -0.2718
    149  CB         6.3510   10.6330   35.2810 C.3   118  ASP118      0.1424
    150  CG         6.4470   11.8540   34.3780 C.2   118  ASP118      0.3668
    151  OD1        7.4640   12.5630   34.4450 O.co2 118  ASP118     -0.2456
    152  OD2        5.5130   12.1040   33.5880 O.co2 118  ASP118     -0.2456
    153  N          7.4000    9.3200   32.3390 N.am  119  MET119     -0.1979
    154  CA         6.9600    9.0270   30.9750 C.3   119  MET119      0.1605
    155  C          7.2400    7.6360   30.4200 C.2   119  MET119      0.2287
    156  O          8.3840    7.1690   30.4040 O.2   119  MET119     -0.2864
    157  CB         7.5430   10.0690   30.0200 C.3   119  MET119      0.0413
    158  CG         6.9790   11.4470   30.2370 C.3   119  MET119      0.0598
    159  SD         5.1820   11.4190   30.1190 S.3   119  MET119     -0.1393
    160  CE         4.9550   11.5400   28.3400 C.3   119  MET119      0.0692
    161  N         11.2870   13.4570   38.2860 N.3   144  SER144     -0.1202
    162  CA        10.0280   13.7370   37.6200 C.3   144  SER144      0.2020
    163  C          9.4230   14.9390   38.3120 C.2   144  SER144      0.2619
    164  O          8.9370   14.8340   39.4270 O.2   144  SER144     -0.2717
    165  CB         9.0650   12.5420   37.7260 C.3   144  SER144      0.2103
    166  OG         7.8490   12.8220   37.0480 O.3   144  SER144     -0.2182
    167  N          9.4750   16.0880   37.6570 N.am  145  ALA145     -0.1965
    168  CA         8.9220   17.3040   38.2210 C.3   145  ALA145      0.1728
    169  C          7.4120   17.1790   38.3050 C.2   145  ALA145      0.2616
    170  O          6.7650   17.8200   39.1420 O.2   145  ALA145     -0.2715
    171  CB         9.2870   18.4840   37.3610 C.3   145  ALA145      0.0334
    172  N          6.8580   16.3490   37.4270 N.am  146  LYS146     -0.1977
    173  CA         5.4190   16.1380   37.3570 C.3   146  LYS146      0.1596
    174  C          4.8670   15.3070   38.5120 C.2   146  LYS146      0.2287
    175  O          3.9450   15.7410   39.1980 O.2   146  LYS146     -0.2864
    176  CB         5.0670   15.4790   36.0220 C.3   146  LYS146      0.0298
    177  CG         3.5800   15.2670   35.7960 C.3   146  LYS146      0.0038
    178  CD         3.3450   14.7570   34.3900 C.3   146  LYS146      0.0206
    179  CE         1.8650   14.6700   34.0610 C.3   146  LYS146      0.1093
    180  NZ         1.6880   14.3940   32.6050 N.3   146  LYS146     -0.1314
@<TRIPOS>BOND
     1   126   125    2
     2   125   124    1
     3   125   127   am
     4   121   120    1
     5   121   122    2
     6   124   123    1
     7   123   120    1
     8   120   119    1
     9   118   117    2
    10     5     6    1
    11     5     2    1
    12   119   117   am
    13     4     3    2
    14    84    82   ar
    15    84    85   ar
    16   117   116    1
    17   100    98    1
    18    82    80   ar
    19    85    83   ar
    20     1     2    1
    21    99    98    1
    22     3     2    1
    23     3     7   am
    24    98    95    1
    25    80    79    1
    26    80    81   ar
    27    83    81   ar
    28    79    76    1
    29    78    77    2
    30     7     8    1
    31   116   115    1
    32     8     9    1
    33    95    94    1
    34    95    96    1
    35    94    88   am
    36    77    76    1
    37    77    86   am
    38    76    75    1
    39     9    10    2
    40     9    11   am
    41   104   103    2
    42    75    71   am
    43    16    15    1
    44   160   159    1
    45   144   143    1
    46    96    97    2
    47    96   101   am
    48    11    12    1
    49   103   102    1
    50    86    87    1
    51    87    88    1
    52    87    90    1
    53   101   102    1
    54    88    89    2
    55    71    70    1
    56    71    72    2
    57    12    15    1
    58    12    13    1
    59    73    70    1
    60    73    74    1
    61    70    69    1
    62    15    17    1
    63    65    64    2
    64   102   105    1
    65    30    29    1
    66   143   142    1
    67   157   158    1
    68   157   154    1
    69   159   158    1
    70   142   141    1
    71    91    90    1
    72    91    93    1
    73    90    92    1
    74   156   155    2
    75   155   154    1
    76    69    64   am
    77    64    63    1
    78    13    18   am
    79    13    14    2
    80   105   107    1
    81   105   106    1
    82   154   153    1
    83    29    28    1
    84    18    19    1
    85   110   111    2
    86   110   109    1
    87   141   140    1
    88   140   137    1
    89   113   112    1
    90    63    66    1
    91    63    62    1
    92    28    27    1
    93    66    67    1
    94   131   130    2
    95   153   147   am
    96   112   109    1
    97   112   114    1
    98   139   138    2
    99    19    20    1
   100   180   179    1
   101   109   108    1
   102    27    26    1
   103    57    56    2
   104    62    68    1
   105    62    56   am
   106    22    20   am
   107    22    23    1
   108   137   138    1
   109   137   136    1
   110   130   136   am
   111   130   129    1
   112   148   147    2
   113   147   146    1
   114    67    68    1
   115    36    35    1
   116   152   150   ar
   117    20    21    2
   118    26    23    1
   119    56    55    1
   120   128   129    1
   121   135   133   am
   122   179   178    1
   123    35    32    1
   124   132   129    1
   125   132   133    1
   126    42    41    1
   127    53    52   ar
   128    53    51   ar
   129    23    24    1
   130   150   151   ar
   131   150   149    1
   132   178   177    1
   133    58    55    1
   134    58    59    1
   135    31    24   am
   136    31    32    1
   137   133   134    2
   138    52    50   ar
   139   145   146    1
   140   146   149    1
   141    55    54    1
   142    61    59   am
   143    51    49   ar
   144    24    25    2
   145    32    33    1
   146    41    38    1
   147    59    60    2
   148    37    33   am
   149    37    38    1
   150   177   176    1
   151    50    48   ar
   152    33    34    2
   153    54    45   am
   154   176   173    1
   155    38    39    1
   156    49    48   ar
   157    48    47    1
   158    46    45    2
   159    45    44    1
   160   166   165    1
   161   173   172    1
   162   173   174    1
   163   171   168    1
   164   172   169   am
   165    39    40    2
   166   162   165    1
   167   162   161    1
   168   162   163    1
   169   167   168    1
   170   167   163   am
   171    47    44    1
   172    44    43    1
   173   168   169    1
   174   169   170    2
   175   163   164    2
   176   174   175    2
