@<TRIPOS>MOLECULE
tmp/1g1bA00.pdb
 107 97 0 0 0
SMALL
GASTEIGER

@<TRIPOS>ATOM
      1  N          0.0690   -2.6420   26.7720 N.3    33  SER33      -0.1202
      2  CA         0.5390   -2.2870   28.0820 C.3    33  SER33       0.2020
      3  C         -0.2000   -3.3400   28.9720 C.2    33  SER33       0.2619
      4  O         -1.0880   -4.0520   28.5220 O.2    33  SER33      -0.2717
      5  CB         0.0050   -0.9360   28.5310 C.3    33  SER33       0.2103
      6  OG        -1.4540   -1.0800   28.6330 O.3    33  SER33      -0.2182
      7  N          0.0820   -3.2780   30.2700 N.am   34  MET34      -0.1965
      8  CA        -0.4880   -4.2150   31.2480 C.3    34  MET34       0.1736
      9  C         -1.8020   -3.7570   31.8620 C.2    34  MET34       0.2617
     10  O         -2.3500   -4.4460   32.7500 O.2    34  MET34      -0.2715
     11  CB         0.5230   -4.3470   32.3810 C.3    34  MET34       0.0427
     12  CG         1.9140   -4.8550   31.9470 C.3    34  MET34       0.0599
     13  SD         1.7280   -6.4640   31.1290 S.3    34  MET34      -0.1393
     14  CE         2.7670   -6.0640   29.5950 C.3    34  MET34       0.0692
     15  N         -2.2830   -2.5870   31.4580 N.am   35  THR35      -0.1951
     16  CA        -3.4770   -2.0460   32.1190 C.3    35  THR35       0.1897
     17  C         -4.6900   -3.0100   32.2230 C.2    35  THR35       0.2313
     18  O         -5.2140   -3.2970   33.3490 O.2    35  THR35      -0.2863
     19  CB        -3.8980   -0.7410   31.3940 C.3    35  THR35       0.1794
     20  OG1       -2.8900    0.2600   31.6120 O.3    35  THR35      -0.2208
     21  CG2       -5.2730   -0.2730   31.8750 C.3    35  THR35       0.0378
     22  N          7.4370   10.2280   30.1070 N.3    76  ARG76      -0.1245
     23  CA         6.3800   10.0160   31.0720 C.3    76  ARG76       0.1563
     24  C          6.7710    8.8660   31.9870 C.2    76  ARG76       0.2260
     25  O          7.0500    7.7200   31.5250 O.2    76  ARG76      -0.2867
     26  CB         5.0730    9.6780   30.3160 C.3    76  ARG76       0.0307
     27  CG         3.8490    9.1360   31.1830 C.3    76  ARG76       0.0489
     28  CD         2.6690    8.8370   30.2300 C.3    76  ARG76       0.2205
     29  NE         1.6280    8.1120   30.9560 N.pl3  76  ARG76      -0.0865
     30  CZ         0.6640    8.6500   31.6980 C.cat  76  ARG76       0.5346
     31  NH1        0.5770    9.9900   31.8460 N.pl3  76  ARG76       0.1354
     32  NH2       -0.2250    7.8280   32.2780 N.pl3  76  ARG76       0.1354
     33  N          5.6240    6.7430   35.4330 N.3    78  ILE78      -0.1245
     34  CA         4.4850    6.4910   36.3360 C.3    78  ILE78       0.1561
     35  C          4.6170    5.1430   37.0440 C.2    78  ILE78       0.2260
     36  O          5.3860    4.2700   36.6260 O.2    78  ILE78      -0.2867
     37  CB         3.1770    6.3760   35.4840 C.3    78  ILE78       0.0252
     38  CG1        3.3240    5.1510   34.5420 C.3    78  ILE78       0.0019
     39  CG2        2.9710    7.7240   34.6790 C.3    78  ILE78       0.0019
     40  CD1        2.1800    4.0870   34.6550 C.3    78  ILE78       0.0001
     41  N          2.0970    2.1020   37.9400 N.3    80  LEU80      -0.1245
     42  CA         0.7810    1.5440   37.6230 C.3    80  LEU80       0.1561
     43  C          0.3820    0.7180   38.8470 C.2    80  LEU80       0.2260
     44  O          1.0720   -0.2600   39.1650 O.2    80  LEU80      -0.2867
     45  CB         0.8880    0.6170   36.4530 C.3    80  LEU80       0.0270
     46  CG        -0.4650    0.2860   35.8280 C.3    80  LEU80       0.0019
     47  CD1       -1.1420    1.5780   35.2660 C.3    80  LEU80       0.0001
     48  CD2       -0.2270   -0.7400   34.7390 C.3    80  LEU80       0.0001
     49  N          3.7510   -1.9900   38.6740 N.3    88  LEU88      -0.1245
     50  CA         4.6940   -1.8000   37.5810 C.3    88  LEU88       0.1561
     51  C          5.1480   -0.3540   37.5560 C.2    88  LEU88       0.2260
     52  O          4.3800    0.5240   37.9950 O.2    88  LEU88      -0.2867
     53  CB         3.9820   -2.1280   36.2700 C.3    88  LEU88       0.0270
     54  CG         4.4770   -1.7190   34.8690 C.3    88  LEU88       0.0019
     55  CD1        3.8370   -2.6990   33.8080 C.3    88  LEU88       0.0001
     56  CD2        4.1250   -0.2250   34.5630 C.3    88  LEU88       0.0001
     57  N          6.4650    2.4020   34.7840 N.3    90  GLY90      -0.1225
     58  CA         6.4060    2.5930   33.3490 C.3    90  GLY90       0.1811
     59  C          7.1000    3.8970   32.9560 C.2    90  GLY90       0.2280
     60  O          6.9430    4.9320   33.5710 O.2    90  GLY90      -0.2866
     61  N          7.7960    5.9480   29.3590 N.3    92  THR92      -0.1218
     62  CA         7.5310    6.1000   27.9470 C.3    92  THR92       0.1862
     63  C          8.2500    7.3540   27.3820 C.2    92  THR92       0.2287
     64  O          8.2290    8.4420   27.9910 O.2    92  THR92      -0.2866
     65  CB         6.0290    6.2740   27.7450 C.3    92  THR92       0.1770
     66  OG1        5.3830    5.1660   28.3270 O.3    92  THR92      -0.2211
     67  CG2        5.6490    6.4060   26.2370 C.3    92  THR92       0.0375
     68  N         -2.4100   11.9380   28.4850 N.3   109  LEU109     -0.1245
     69  CA        -2.9510   10.9130   29.3500 C.3   109  LEU109      0.1561
     70  C         -3.1770   11.3510   30.7910 C.2   109  LEU109      0.2260
     71  O         -4.2750   11.1160   31.3090 O.2   109  LEU109     -0.2867
     72  CB        -2.0270    9.6810   29.3560 C.3   109  LEU109      0.0270
     73  CG        -1.9690    9.0310   27.9460 C.3   109  LEU109      0.0019
     74  CD1       -0.8370    8.0410   27.9110 C.3   109  LEU109      0.0001
     75  CD2       -3.3250    8.3470   27.6110 C.3   109  LEU109      0.0001
     76  N         -4.4130    5.4020   32.4320 N.3   113  PRO113     -0.2102
     77  CA        -3.3740    4.4150   32.0990 C.3   113  PRO113      0.1504
     78  C         -3.3350    4.0240   30.6340 C.2   113  PRO113      0.2575
     79  O         -4.3360    3.6910   30.0030 O.2   113  PRO113     -0.2718
     80  CB        -3.6980    3.1990   32.9750 C.3   113  PRO113      0.0282
     81  CG        -5.2170    3.2790   33.1340 C.3   113  PRO113      0.0208
     82  CD        -5.4780    4.8170   33.2870 C.3   113  PRO113      0.0893
     83  N         -2.1490    3.9960   30.0990 N.am  114  LEU114     -0.1980
     84  CA        -2.0070    3.6640   28.7020 C.3   114  LEU114      0.1596
     85  C         -2.4690    2.2540   28.3340 C.2   114  LEU114      0.2287
     86  O         -2.3590    1.3150   29.1500 O.2   114  LEU114     -0.2864
     87  CB        -0.5380    3.8270   28.3260 C.3   114  LEU114      0.0297
     88  CG        -0.0530    3.3510   26.9310 C.3   114  LEU114      0.0022
     89  CD1       -0.2500    4.4490   25.8450 C.3   114  LEU114      0.0001
     90  CD2        1.4720    3.0490   27.0540 C.3   114  LEU114      0.0001
     91  N          8.6490    2.3040   25.0590 N.3   153  LEU153     -0.1245
     92  CA         7.9730    1.9770   26.3060 C.3   153  LEU153      0.1561
     93  C          8.8470    1.0510   27.0950 C.2   153  LEU153      0.2260
     94  O          9.1910   -0.0110   26.5790 O.2   153  LEU153     -0.2867
     95  CB         6.6160    1.2690   26.0330 C.3   153  LEU153      0.0270
     96  CG         5.8040    0.7110   27.2430 C.3   153  LEU153      0.0019
     97  CD1        5.5100    1.8580   28.2280 C.3   153  LEU153      0.0001
     98  CD2        4.4830    0.1640   26.7700 C.3   153  LEU153      0.0001
     99  N          9.0850   -0.9560   30.8610 N.3   155  GLU155     -0.1245
    100  CA         8.2400   -1.3840   31.9990 C.3   155  GLU155      0.1567
    101  C          8.9830   -2.3720   32.9210 C.2   155  GLU155      0.2260
    102  O          9.7010   -3.2830   32.4410 O.2   155  GLU155     -0.2867
    103  CB         6.9730   -2.0670   31.4590 C.3   155  GLU155      0.0388
    104  CG         6.0970   -1.1720   30.5640 C.3   155  GLU155      0.1160
    105  CD         5.2210   -2.0570   29.6680 C.2   155  GLU155      0.3649
    106  OE1        4.0220   -2.1530   29.9540 O.co2 155  GLU155     -0.2457
    107  OE2        5.7600   -2.6720   28.6930 O.co2 155  GLU155     -0.2457
@<TRIPOS>BOND
     1    91    92    1
     2    89    88    1
     3    95    92    1
     4    95    96    1
     5    67    65    1
     6    92    93    1
     7    94    93    2
     8    98    96    1
     9     1     2    1
    10    88    90    1
    11    88    87    1
    12    96    97    1
    13    63    62    1
    14    63    64    2
    15    75    73    1
    16    65    62    1
    17    65    66    1
    18    74    73    1
    19    73    72    1
    20    62    61    1
    21     2     5    1
    22     2     3    1
    23    87    84    1
    24    85    84    1
    25    85    86    2
    26    68    69    1
    27     4     3    2
    28     5     6    1
    29   107   105   ar
    30    84    83    1
    31     3     7   am
    32    69    72    1
    33    69    70    1
    34    14    13    1
    35   105   106   ar
    36   105   104    1
    37    79    78    2
    38    83    78   am
    39    22    23    1
    40    28    29    1
    41    28    27    1
    42     7     8    1
    43    26    23    1
    44    26    27    1
    45   104   103    1
    46    78    77    1
    47    70    71    2
    48    99   100    1
    49    29    30    2
    50    23    24    1
    51    13    12    1
    52     8     9    1
    53     8    11    1
    54    19    20    1
    55    19    21    1
    56    19    16    1
    57    15     9   am
    58    15    16    1
    59   103   100    1
    60    25    24    2
    61    30    31    1
    62    30    32    1
    63     9    10    2
    64    12    11    1
    65   100   101    1
    66    77    76    1
    67    77    80    1
    68    16    17    1
    69    17    18    2
    70    76    82    1
    71   102   101    2
    72    59    58    1
    73    59    60    2
    74    80    81    1
    75    81    82    1
    76    58    57    1
    77    55    54    1
    78    38    40    1
    79    38    37    1
    80    56    54    1
    81    39    37    1
    82    48    46    1
    83    54    53    1
    84    47    46    1
    85    33    34    1
    86    37    34    1
    87    46    45    1
    88    53    50    1
    89    34    35    1
    90    45    42    1
    91    36    35    2
    92    51    50    1
    93    51    52    2
    94    50    49    1
    95    42    41    1
    96    42    43    1
    97    43    44    2
