@<TRIPOS>MOLECULE
tmp/1g1fA00.pdb
 208 199 0 0 0
SMALL
GASTEIGER

@<TRIPOS>ATOM
      1  N         23.6670  -14.5820    3.3770 N.3    19  TYR19      -0.1241
      2  CA        22.5600  -14.0300    2.6000 C.3    19  TYR19       0.1605
      3  C         22.1240  -14.9690    1.4620 C.2    19  TYR19       0.2264
      4  O         20.9310  -15.0640    1.1630 O.2    19  TYR19      -0.2867
      5  CB        22.9270  -12.6300    2.0820 C.3    19  TYR19       0.0534
      6  CG        21.9010  -11.9960    1.1610 C.ar   19  TYR19      -0.0201
      7  CD1       20.5750  -11.7400    1.6010 C.ar   19  TYR19      -0.0009
      8  CD2       22.2250  -11.7300   -0.1840 C.ar   19  TYR19      -0.0009
      9  CE1       19.5930  -11.2470    0.7060 C.ar   19  TYR19       0.0417
     10  CE2       21.2560  -11.2340   -1.0840 C.ar   19  TYR19       0.0417
     11  CZ        19.9480  -11.0040   -0.6330 C.ar   19  TYR19       0.1957
     12  OH        19.0100  -10.5830   -1.5330 O.3    19  TYR19      -0.2866
     13  N         18.3250  -16.7920    0.5630 N.3    23  ARG23      -0.1245
     14  CA        17.7450  -16.7890   -0.7840 C.3    23  ARG23       0.1563
     15  C         17.3640  -18.1940   -1.2530 C.2    23  ARG23       0.2260
     16  O         16.3210  -18.3820   -1.8850 O.2    23  ARG23      -0.2867
     17  CB        18.7190  -16.1750   -1.7860 C.3    23  ARG23       0.0307
     18  CG        18.8450  -14.6650   -1.7000 C.3    23  ARG23       0.0489
     19  CD        19.5630  -14.1090   -2.9210 C.3    23  ARG23       0.2205
     20  NE        18.7780  -14.2660   -4.1460 N.pl3  23  ARG23      -0.0865
     21  CZ        19.2180  -14.8380   -5.2650 C.cat  23  ARG23       0.5346
     22  NH1       20.4530  -15.3220   -5.3360 N.pl3  23  ARG23       0.1354
     23  NH2       18.4160  -14.9270   -6.3190 N.pl3  23  ARG23       0.1354
     24  N         14.2900  -19.3690    0.8610 N.3    26  ALA26      -0.1231
     25  CA        13.0960  -18.5430    0.6270 C.3    26  ALA26       0.1694
     26  C         11.9540  -19.2240   -0.1230 C.2    26  ALA26       0.2592
     27  O         12.1780  -20.0020   -1.0530 O.2    26  ALA26      -0.2718
     28  CB        13.4800  -17.2480   -0.0750 C.3    26  ALA26       0.0304
     29  N         10.7310  -18.9000    0.3010 N.am   27  SER27      -0.1952
     30  CA         9.4940  -19.4290   -0.2720 C.3    27  SER27       0.1924
     31  C          9.3080  -19.1050   -1.7520 C.2    27  SER27       0.2314
     32  O          9.7870  -18.0750   -2.2380 O.2    27  SER27      -0.2863
     33  CB         8.2950  -18.8610    0.4740 C.3    27  SER27       0.2116
     34  OG         8.2650  -19.2430    1.8320 O.3    27  SER27      -0.2180
     35  N          6.0200   -2.7770  -12.9180 N.3    44  ARG44      -0.1231
     36  CA         7.2020   -1.9690  -13.2300 C.3    44  ARG44       0.1694
     37  C          8.3610   -2.8650  -13.6760 C.2    44  ARG44       0.2592
     38  O          9.0950   -2.5190  -14.6040 O.2    44  ARG44      -0.2718
     39  CB         7.6040   -1.1120  -12.0180 C.3    44  ARG44       0.0321
     40  CG         8.8170   -0.2050  -12.2230 C.3    44  ARG44       0.0489
     41  CD         9.0150    0.7580  -11.0540 C.3    44  ARG44       0.2205
     42  NE         8.0370    1.8420  -11.0770 N.pl3  44  ARG44      -0.0865
     43  CZ         8.1400    2.9340  -11.8300 C.cat  44  ARG44       0.5346
     44  NH1        9.1900    3.1100  -12.6270 N.pl3  44  ARG44       0.1354
     45  NH2        7.1760    3.8390  -11.8050 N.pl3  44  ARG44       0.1354
     46  N          8.4990   -4.0190  -13.0210 N.am   45  TYR45      -0.1962
     47  CA         9.5610   -4.9770  -13.3350 C.3    45  TYR45       0.1771
     48  C          9.0040   -6.3840  -13.5480 C.2    45  TYR45       0.2619
     49  O          8.1200   -6.8300  -12.8100 O.2    45  TYR45      -0.2715
     50  CB        10.6170   -5.0080  -12.2210 C.3    45  TYR45       0.0574
     51  CG        11.2880   -3.6830  -11.9230 C.ar   45  TYR45      -0.0198
     52  CD1       11.0670   -3.0280  -10.6940 C.ar   45  TYR45      -0.0009
     53  CD2       12.1440   -3.0670  -12.8650 C.ar   45  TYR45      -0.0009
     54  CE1       11.6820   -1.7850  -10.4030 C.ar   45  TYR45       0.0417
     55  CE2       12.7680   -1.8150  -12.5860 C.ar   45  TYR45       0.0417
     56  CZ        12.5270   -1.1870  -11.3530 C.ar   45  TYR45       0.1957
     57  OH        13.1130    0.0190  -11.0660 O.3    45  TYR45      -0.2866
     58  N          9.5610   -7.0820  -14.5410 N.am   46  ARG46      -0.1963
     59  CA         9.1650   -8.4490  -14.9090 C.3    46  ARG46       0.1729
     60  C          9.5500   -9.5030  -13.8660 C.2    46  ARG46       0.2616
     61  O          8.9310  -10.5620  -13.7880 O.2    46  ARG46      -0.2715
     62  CB         9.7970   -8.8380  -16.2530 C.3    46  ARG46       0.0348
     63  CG         9.1640   -8.2080  -17.4950 C.3    46  ARG46       0.0492
     64  CD        10.0260   -8.4230  -18.7560 C.3    46  ARG46       0.2205
     65  NE        10.3530   -9.8300  -19.0240 N.pl3  46  ARG46      -0.0865
     66  CZ        11.5810  -10.2970  -19.2670 C.cat  46  ARG46       0.5346
     67  NH1       12.6290   -9.4780  -19.2820 N.pl3  46  ARG46       0.1354
     68  NH2       11.7690  -11.5940  -19.4760 N.pl3  46  ARG46       0.1354
     69  N         10.5710   -9.1990  -13.0710 N.am   47  ASP47      -0.1957
     70  CA        11.0730  -10.1120  -12.0430 C.3    47  ASP47       0.1840
     71  C         10.5960   -9.8380  -10.6110 C.2    47  ASP47       0.2621
     72  O         11.0470  -10.4970   -9.6680 O.2    47  ASP47      -0.2715
     73  CB        12.6110  -10.1810  -12.1040 C.3    47  ASP47       0.1450
     74  CG        13.2850   -8.8010  -12.0980 C.2    47  ASP47       0.3671
     75  OD1       12.6010   -7.7530  -12.0360 O.co2  47  ASP47      -0.2456
     76  OD2       14.5240   -8.7710  -12.1720 O.co2  47  ASP47      -0.2456
     77  N          9.7340   -8.8320  -10.4480 N.am   48  VAL48      -0.1977
     78  CA         9.1840   -8.4720   -9.1330 C.3    48  VAL48       0.1596
     79  C          7.6600   -8.5390   -9.2410 C.2    48  VAL48       0.2287
     80  O          7.0180   -7.6480   -9.8090 O.2    48  VAL48      -0.2864
     81  CB         9.6520   -7.0560   -8.6570 C.3    48  VAL48       0.0276
     82  CG1        9.0530   -6.7190   -7.2850 C.3    48  VAL48       0.0022
     83  CG2       11.1740   -6.9920   -8.5770 C.3    48  VAL48       0.0022
     84  N         17.4020    7.9570  -14.2090 N.3   117  SER117     -0.1217
     85  CA        16.3760    7.0080  -14.6470 C.3   117  SER117      0.1889
     86  C         15.1280    7.0740  -13.7650 C.2   117  SER117      0.2288
     87  O         15.2300    7.1470  -12.5370 O.2   117  SER117     -0.2866
     88  CB        16.9440    5.5820  -14.6410 C.3   117  SER117      0.2089
     89  OG        16.0150    4.6480  -15.1630 O.3   117  SER117     -0.2183
     90  N         12.4140    5.8450  -11.6490 N.3   119  LYS119     -0.1245
     91  CA        12.2070    4.7020  -10.7580 C.3   119  LYS119      0.1561
     92  C         10.8300    4.6930  -10.0960 C.2   119  LYS119      0.2260
     93  O         10.3990    3.6720   -9.5490 O.2   119  LYS119     -0.2867
     94  CB        13.2890    4.6920   -9.6650 C.3   119  LYS119      0.0271
     95  CG        14.7320    4.5950  -10.1580 C.3   119  LYS119      0.0035
     96  CD        15.0440    3.2700  -10.8440 C.3   119  LYS119      0.0206
     97  CE        16.5030    3.2140  -11.2760 C.3   119  LYS119      0.1093
     98  NZ        16.8310    1.9310  -11.9540 N.3   119  LYS119     -0.1314
     99  N         19.5000    3.1060   -4.4430 N.3   180  ASP180     -0.1225
    100  CA        19.0390    1.7950   -4.8900 C.3   180  ASP180      0.1805
    101  C         20.1240    0.7550   -4.6310 C.2   180  ASP180      0.2597
    102  O         21.3090    1.0070   -4.8920 O.2   180  ASP180     -0.2718
    103  CB        18.5830    1.8260   -6.3690 C.3   180  ASP180      0.1424
    104  CG        19.7180    2.1240   -7.3560 C.2   180  ASP180      0.3668
    105  OD1       19.7820    1.4270   -8.3940 O.co2 180  ASP180     -0.2456
    106  OD2       20.5360    3.0420   -7.1030 O.co2 180  ASP180     -0.2456
    107  N         19.7130   -0.3640   -4.0240 N.am  181  PHE181     -0.1976
    108  CA        20.5900   -1.4880   -3.6530 C.3   181  PHE181      0.1639
    109  C         21.6800   -1.0450   -2.6710 C.2   181  PHE181      0.2290
    110  O         22.7660   -1.6260   -2.6140 O.2   181  PHE181     -0.2864
    111  CB        21.2010   -2.1660   -4.8940 C.3   181  PHE181      0.0560
    112  CG        20.1860   -2.7110   -5.8510 C.ar  181  PHE181     -0.0200
    113  CD1       19.6470   -3.9960   -5.6650 C.ar  181  PHE181     -0.0042
    114  CD2       19.7610   -1.9410   -6.9530 C.ar  181  PHE181     -0.0042
    115  CE1       18.6880   -4.5170   -6.5730 C.ar  181  PHE181     -0.0003
    116  CE2       18.8050   -2.4400   -7.8680 C.ar  181  PHE181     -0.0003
    117  CZ        18.2710   -3.7310   -7.6760 C.ar  181  PHE181     -0.0000
    118  N          9.4720    1.3770   -2.5090 N.3   214  ALA214     -0.1231
    119  CA        10.7500    1.8300   -3.0390 C.3   214  ALA214      0.1694
    120  C         10.4620    1.8110   -4.5490 C.2   214  ALA214      0.2593
    121  O          9.3810    2.2520   -4.9530 O.2   214  ALA214     -0.2718
    122  CB        11.8690    0.8690   -2.6540 C.3   214  ALA214      0.0304
    123  N         11.3890    1.3460   -5.3880 N.am  215  SER215     -0.1938
    124  CA        11.1160    1.2730   -6.8300 C.3   215  SER215      0.2055
    125  C         10.3710   -0.0420   -7.1000 C.2   215  SER215      0.2643
    126  O          9.3160   -0.0490   -7.7370 O.2   215  SER215     -0.2714
    127  CB        12.4010    1.3460   -7.6510 C.3   215  SER215      0.2130
    128  OG        12.0920    1.5400   -9.0210 O.3   215  SER215     -0.2179
    129  N         10.9170   -1.1420   -6.5770 N.am  216  ALA216     -0.1963
    130  CA        10.3020   -2.4610   -6.7080 C.3   216  ALA216      0.1728
    131  C          9.5120   -2.7850   -5.4530 C.2   216  ALA216      0.2617
    132  O          8.5830   -3.5920   -5.4880 O.2   216  ALA216     -0.2715
    133  CB        11.3430   -3.5070   -6.9130 C.3   216  ALA216      0.0334
    134  N          9.9050   -2.1560   -4.3470 N.am  217  GLY217     -0.1940
    135  CA         9.2480   -2.3730   -3.0740 C.3   217  GLY217      0.2014
    136  C          9.6200   -3.6890   -2.4230 C.2   217  GLY217      0.2639
    137  O          8.7650   -4.3560   -1.8320 O.2   217  GLY217     -0.2714
    138  N         10.8750   -4.1030   -2.6020 N.am  218  ILE218     -0.1963
    139  CA        11.3730   -5.3410   -1.9960 C.3   218  ILE218      0.1727
    140  C         12.6990   -5.1720   -1.2510 C.2   218  ILE218      0.2617
    141  O         12.8450   -5.6750   -0.1420 O.2   218  ILE218     -0.2715
    142  CB        11.4850   -6.5470   -3.0130 C.3   218  ILE218      0.0290
    143  CG1       12.4350   -6.2310   -4.1760 C.3   218  ILE218      0.0022
    144  CG2       10.1000   -6.9530   -3.5260 C.3   218  ILE218      0.0023
    145  CD1       12.7620   -7.4330   -5.0560 C.3   218  ILE218      0.0001
    146  N         13.6310   -4.4200   -1.8440 N.am  219  GLY219     -0.1940
    147  CA        14.9550   -4.2150   -1.2630 C.3   219  GLY219      0.2014
    148  C         15.0350   -3.3290   -0.0440 C.2   219  GLY219      0.2638
    149  O         15.3030   -3.8030    1.0580 O.2   219  GLY219     -0.2714
    150  N         14.7880   -2.0390   -0.2500 N.am  220  ARG220     -0.1977
    151  CA        14.8190   -1.0520    0.8210 C.3   220  ARG220      0.1597
    152  C         13.6220   -1.2280    1.7450 C.2   220  ARG220      0.2287
    153  O         13.7260   -1.0140    2.9550 O.2   220  ARG220     -0.2864
    154  CB        14.8560    0.3550    0.2250 C.3   220  ARG220      0.0334
    155  CG        16.1740    0.6600   -0.4750 C.3   220  ARG220      0.0492
    156  CD        16.0840    1.8990   -1.3380 C.3   220  ARG220      0.2205
    157  NE        15.4970    1.6080   -2.6450 N.pl3 220  ARG220     -0.0865
    158  CZ        15.5240    2.4430   -3.6770 C.cat 220  ARG220      0.5346
    159  NH1       16.1090    3.6290   -3.5610 N.pl3 220  ARG220      0.1354
    160  NH2       14.9930    2.0840   -4.8370 N.pl3 220  ARG220      0.1354
    161  N          9.3770  -13.2880    3.8080 N.3   253  ARG253     -0.1245
    162  CA         9.4940  -13.7350    2.4120 C.3   253  ARG253      0.1563
    163  C          8.4360  -14.7440    1.9630 C.2   253  ARG253      0.2260
    164  O          8.3780  -15.1220    0.7880 O.2   253  ARG253     -0.2867
    165  CB        10.9190  -14.2110    2.1020 C.3   253  ARG253      0.0307
    166  CG        11.8680  -13.0320    1.8930 C.3   253  ARG253      0.0489
    167  CD        13.3420  -13.3950    1.9350 C.3   253  ARG253      0.2205
    168  NE        13.8190  -13.9490    0.6750 N.pl3 253  ARG253     -0.0865
    169  CZ        14.7180  -13.3780   -0.1240 C.cat 253  ARG253      0.5346
    170  NH1       15.2680  -12.2110    0.1780 N.pl3 253  ARG253      0.1354
    171  NH2       15.0640  -13.9890   -1.2430 N.pl3 253  ARG253      0.1354
    172  N          8.2420  -11.8230   -2.4330 N.3   257  MET257     -0.1182
    173  CA         9.5550  -12.2830   -2.8920 C.3   257  MET257      0.1917
    174  C         10.6640  -11.2490   -2.7620 C.2   257  MET257      0.2635
    175  O         10.4000  -10.0380   -2.7310 O.2   257  MET257     -0.2714
    176  CB         9.4800  -12.7350   -4.3630 C.2   257  MET257      0.0083
    177  CG         9.0210  -11.6470   -5.3590 C.2   257  MET257      0.0282
    178  SD         9.2560  -12.0560   -7.1150 S.3   257  MET257     -0.1125
    179  CE         8.0920  -13.4040   -7.3060 C.3   257  MET257      0.0742
    180  N         11.8930  -11.7590   -2.6660 N.am  258  GLY258     -0.1954
    181  CA        13.1020  -10.9490   -2.5980 C.3   258  GLY258      0.1869
    182  C         13.2940   -9.8350   -1.5890 C.2   258  GLY258      0.2309
    183  O         14.0550   -8.9000   -1.8710 O.2   258  GLY258     -0.2863
    184  N         17.5600   -7.0680   -0.8080 N.3   261  GLN261     -0.1231
    185  CA        18.2530   -7.3840   -2.0570 C.3   261  GLN261      0.1698
    186  C         19.7650   -7.5940   -2.0700 C.2   261  GLN261      0.2592
    187  O         20.2930   -8.1350   -3.0450 O.2   261  GLN261     -0.2718
    188  CB        17.8620   -6.3660   -3.1300 C.3   261  GLN261      0.0381
    189  CG        16.5140   -6.6380   -3.7730 C.3   261  GLN261      0.0905
    190  CD        16.5380   -7.8150   -4.7310 C.2   261  GLN261      0.2608
    191  OE1       17.0950   -7.7270   -5.8240 O.2   261  GLN261     -0.2717
    192  NE2       15.9280   -8.9210   -4.3230 N.am  261  GLN261     -0.0878
    193  N         20.4690   -7.1320   -1.0370 N.am  262  THR262     -0.1953
    194  CA        21.9280   -7.3060   -0.9670 C.3   262  THR262      0.1897
    195  C         22.3540   -7.8370    0.3960 C.2   262  THR262      0.2313
    196  O         21.5840   -7.7890    1.3600 O.2   262  THR262     -0.2863
    197  CB        22.7400   -5.9830   -1.2410 C.3   262  THR262      0.1794
    198  OG1       22.5630   -5.0600   -0.1610 O.3   262  THR262     -0.2208
    199  CG2       22.3330   -5.3160   -2.5590 C.3   262  THR262      0.0378
    200  N         22.4810   -4.9920    2.9400 N.3   265  GLN265     -0.1245
    201  CA        21.1660   -4.5930    3.4600 C.3   265  GLN265      0.1566
    202  C         20.7760   -5.5020    4.6340 C.2   265  GLN265      0.2260
    203  O         20.1260   -5.0560    5.5810 O.2   265  GLN265     -0.2867
    204  CB        20.1010   -4.6250    2.3580 C.3   265  GLN265      0.0367
    205  CG        20.2210   -3.4880    1.3400 C.3   265  GLN265      0.0905
    206  CD        19.1260   -3.5000    0.2810 C.2   265  GLN265      0.2608
    207  OE1       18.5140   -4.5330    0.0010 O.2   265  GLN265     -0.2717
    208  NE2       18.8720   -2.3410   -0.3090 N.am  265  GLN265     -0.0878
@<TRIPOS>BOND
     1    68    66    1
     2    67    66    1
     3    66    65    2
     4    65    64    1
     5    64    63    1
     6    63    62    1
     7    62    59    1
     8    89    88    1
     9    59    58    1
    10    59    60    1
    11    85    88    1
    12    85    84    1
    13    85    86    1
    14    38    37    2
    15    58    48   am
    16    60    61    2
    17    60    69   am
    18    86    87    2
    19    37    36    1
    20    37    46   am
    21    48    47    1
    22    48    49    2
    23    47    46    1
    24    47    50    1
    25    36    35    1
    26    36    39    1
    27    69    70    1
    28    53    55   ar
    29    53    51   ar
    30    44    43    1
    31    55    56   ar
    32    40    39    1
    33    40    41    1
    34    50    51    1
    35    76    74   ar
    36    73    74    1
    37    73    70    1
    38    74    75   ar
    39    70    71    1
    40    98    97    1
    41    51    52   ar
    42    43    45    1
    43    43    42    2
    44    90    91    1
    45    56    57    1
    46    56    54   ar
    47    97    96    1
    48    42    41    1
    49    96    95    1
    50    91    92    1
    51    91    94    1
    52    52    54   ar
    53    71    77   am
    54    71    72    2
    55    77    78    1
    56    95    94    1
    57    92    93    2
    58    80    79    2
    59    79    78    1
    60    78    81    1
    61   128   127    1
    62    81    83    1
    63    81    82    1
    64   105   104   ar
    65   116   117   ar
    66   116   114   ar
    67   126   125    2
    68   117   115   ar
    69   127   124    1
    70   104   106   ar
    71   104   103    1
    72   179   178    1
    73   178   177    1
    74   125   124    1
    75   125   129   am
    76   114   112   ar
    77   133   130    1
    78   124   123    1
    79   130   129    1
    80   130   131    1
    81   115   113   ar
    82   103   100    1
    83    23    21    1
    84   112   113   ar
    85   112   111    1
    86   191   190    2
    87   132   131    2
    88   131   134   am
    89   123   120   am
    90   177   176    2
    91    22    21    1
    92    21    20    2
    93   145   143    1
    94   121   120    2
    95   111   108    1
    96   102   101    2
    97   100   101    1
    98   100    99    1
    99   160   158    1
   100   190   192   am
   101   190   189    1
   102   101   107   am
   103   120   119    1
   104   176   173    1
   105   134   135    1
   106   143   142    1
   107    20    19    1
   108   107   108    1
   109   189   188    1
   110   158   159    1
   111   158   157    2
   112   108   109    1
   113   144   142    1
   114   188   185    1
   115   135   136    1
   116   187   186    2
   117   119   122    1
   118   119   118    1
   119   142   139    1
   120    19    18    1
   121   173   174    1
   122   173   172    1
   123   174   175    2
   124   174   180   am
   125   109   110    2
   126   180   181    1
   127   157   156    1
   128   138   136   am
   129   138   139    1
   130   181   182    1
   131   199   197    1
   132   136   137    2
   133    32    31    2
   134   186   185    1
   135   186   193   am
   136   185   184    1
   137   139   140    1
   138    16    15    2
   139   183   182    2
   140   146   147    1
   141   146   140   am
   142    17    18    1
   143    17    14    1
   144    31    30    1
   145    12    11    1
   146   156   155    1
   147   147   148    1
   148    15    14    1
   149   140   141    2
   150   171   169    1
   151   197   194    1
   152   197   198    1
   153    10    11   ar
   154    10     8   ar
   155    27    26    2
   156   193   194    1
   157   194   195    1
   158    14    13    1
   159    11     9   ar
   160   155   154    1
   161   208   206   am
   162    30    29    1
   163    30    33    1
   164   150   148   am
   165   150   151    1
   166     8     6   ar
   167   169   170    1
   168   169   168    2
   169    26    29   am
   170    26    25    1
   171    28    25    1
   172   148   149    2
   173   207   206    2
   174   154   151    1
   175   206   205    1
   176   195   196    2
   177    33    34    1
   178    25    24    1
   179   168   167    1
   180     9     7   ar
   181   164   163    2
   182   151   152    1
   183     6     7   ar
   184     6     5    1
   185     4     3    2
   186   205   204    1
   187     3     2    1
   188   152   153    2
   189   166   167    1
   190   166   165    1
   191   163   162    1
   192     5     2    1
   193   165   162    1
   194   204   201    1
   195   162   161    1
   196     2     1    1
   197   200   201    1
   198   201   202    1
   199   202   203    2
