@<TRIPOS>MOLECULE
tmp/1g1gA00.pdb
 140 136 0 0 0
SMALL
GASTEIGER

@<TRIPOS>ATOM
      1  N          4.3920   16.8690    6.0400 N.3    24  ARG24      -0.1245
      2  CA         4.5420   16.8850    4.5770 C.3    24  ARG24       0.1563
      3  C          4.7700   18.2980    4.0370 C.2    24  ARG24       0.2260
      4  O          5.5790   18.4970    3.1260 O.2    24  ARG24      -0.2867
      5  CB         3.3100   16.2930    3.8920 C.3    24  ARG24       0.0307
      6  CG         3.0750   14.8170    4.1500 C.3    24  ARG24       0.0489
      7  CD         1.9330   14.2800    3.2920 C.3    24  ARG24       0.2205
      8  NE         2.3220   14.1050    1.8910 N.pl3  24  ARG24      -0.0865
      9  CZ         1.7210   14.6810    0.8510 C.cat  24  ARG24       0.5346
     10  NH1        0.6800   15.4890    1.0310 N.pl3  24  ARG24       0.1354
     11  NH2        2.1780   14.4610   -0.3760 N.pl3  24  ARG24       0.1354
     12  N         12.2930    2.8550  -10.5110 N.3    45  ARG45      -0.1231
     13  CA        11.0750    2.0400  -10.4420 C.3    45  ARG45       0.1694
     14  C          9.8220    2.9240  -10.5160 C.2    45  ARG45       0.2592
     15  O          8.8580    2.5890  -11.2160 O.2    45  ARG45      -0.2718
     16  CB        11.0650    1.2010   -9.1520 C.3    45  ARG45       0.0321
     17  CG         9.9130    0.1880   -9.0220 C.3    45  ARG45       0.0489
     18  CD        10.0800   -0.7320   -7.7960 C.3    45  ARG45       0.2205
     19  NE        11.0370   -1.8130   -8.0430 N.pl3  45  ARG45      -0.0865
     20  CZ        10.7640   -2.9180   -8.7340 C.cat  45  ARG45       0.5346
     21  NH1        9.5490   -3.1200   -9.2470 N.pl3  45  ARG45       0.1354
     22  NH2       11.7250   -3.8010   -8.9690 N.pl3  45  ARG45       0.1354
     23  N          9.8540    4.0430   -9.7900 N.am   46  TYR46      -0.1962
     24  CA         8.7440    4.9960   -9.7390 C.3    46  TYR46       0.1771
     25  C          9.1880    6.4060  -10.1190 C.2    46  TYR46       0.2619
     26  O         10.2660    6.8580   -9.7130 O.2    46  TYR46      -0.2715
     27  CB         8.1130    5.0290   -8.3390 C.3    46  TYR46       0.0574
     28  CG         7.5850    3.7000   -7.8390 C.ar   46  TYR46      -0.0198
     29  CD1        8.2190    3.0350   -6.7730 C.ar   46  TYR46      -0.0009
     30  CD2        6.4580    3.0860   -8.4400 C.ar   46  TYR46      -0.0009
     31  CE1        7.7500    1.7790   -6.3090 C.ar   46  TYR46       0.0417
     32  CE2        5.9730    1.8240   -7.9850 C.ar   46  TYR46       0.0417
     33  CZ         6.6260    1.1800   -6.9220 C.ar   46  TYR46       0.1957
     34  OH         6.1790   -0.0380   -6.4680 O.3    46  TYR46      -0.2866
     35  N          8.3160    7.1110  -10.8450 N.am   47  ARG47      -0.1963
     36  CA         8.5620    8.4830  -11.3080 C.3    47  ARG47       0.1729
     37  C          8.4830    9.5510  -10.2170 C.2    47  ARG47       0.2616
     38  O          9.0680   10.6270  -10.3520 O.2    47  ARG47      -0.2715
     39  CB         7.5850    8.8430  -12.4320 C.3    47  ARG47       0.0348
     40  CG         7.8460    8.1810  -13.7840 C.3    47  ARG47       0.0492
     41  CD         7.5150    6.6950  -13.7750 C.3    47  ARG47       0.2205
     42  NE         6.2300    6.4120  -13.1310 N.pl3  47  ARG47      -0.0865
     43  CZ         5.7830    5.1890  -12.8470 C.cat  47  ARG47       0.5346
     44  NH1        6.5030    4.1160  -13.1570 N.pl3  47  ARG47       0.1354
     45  NH2        4.6340    5.0430  -12.1990 N.pl3  47  ARG47       0.1354
     46  N          7.7630    9.2410   -9.1430 N.am   48  ASP48      -0.1957
     47  CA         7.5790   10.1630   -8.0260 C.3    48  ASP48       0.1840
     48  C          8.5260    9.9460   -6.8330 C.2    48  ASP48       0.2621
     49  O          8.4620   10.6890   -5.8490 O.2    48  ASP48      -0.2715
     50  CB         6.0930   10.1910   -7.5780 C.3    48  ASP48       0.1450
     51  CG         5.4910    8.7910   -7.3380 C.2    48  ASP48       0.3671
     52  OD1        6.0260    7.7820   -7.8520 O.co2  48  ASP48      -0.2456
     53  OD2        4.4520    8.7070   -6.6420 O.co2  48  ASP48      -0.2456
     54  N          9.3780    8.9200   -6.9200 N.am   49  VAL49      -0.1977
     55  CA        10.3530    8.5960   -5.8650 C.3    49  VAL49       0.1596
     56  C         11.7770    8.6740   -6.4510 C.2    49  VAL49       0.2287
     57  O         12.2200    7.7790   -7.1900 O.2    49  VAL49      -0.2864
     58  CB        10.0830    7.1910   -5.2280 C.3    49  VAL49       0.0276
     59  CG1       11.0560    6.9190   -4.0780 C.3    49  VAL49       0.0022
     60  CG2        8.6510    7.1020   -4.7040 C.3    49  VAL49       0.0022
     61  N          2.1180   -3.1960    1.8400 N.3   181  ASP181     -0.1225
     62  CA         2.4270   -1.8960    1.2410 C.3   181  ASP181      0.1805
     63  C          1.4350   -0.8870    1.8110 C.2   181  ASP181      0.2597
     64  O          0.2460   -1.1930    1.9440 O.2   181  ASP181     -0.2718
     65  CB         2.3100   -1.9690   -0.2890 C.3   181  ASP181      0.1424
     66  CG         3.1630   -0.9200   -1.0100 C.2   181  ASP181      0.3668
     67  OD1        3.9620   -0.2020   -0.3590 O.co2 181  ASP181     -0.2456
     68  OD2        3.0370   -0.8220   -2.2520 O.co2 181  ASP181     -0.2456
     69  N          1.9610    0.2670    2.2330 N.am  182  PHE182     -0.1976
     70  CA         1.2010    1.3690    2.8470 C.3   182  PHE182      0.1639
     71  C          0.5410    0.9540    4.1690 C.2   182  PHE182      0.2290
     72  O         -0.2820    1.6830    4.7230 O.2   182  PHE182     -0.2864
     73  CB         0.1690    1.9740    1.8700 C.3   182  PHE182      0.0560
     74  CG         0.7840    2.6150    0.6540 C.ar  182  PHE182     -0.0200
     75  CD1        1.3600    3.8980    0.7330 C.ar  182  PHE182     -0.0042
     76  CD2        0.8160    1.9300   -0.5760 C.ar  182  PHE182     -0.0042
     77  CE1        1.9710    4.4980   -0.4060 C.ar  182  PHE182     -0.0003
     78  CE2        1.4210    2.5090   -1.7260 C.ar  182  PHE182     -0.0003
     79  CZ         2.0000    3.7970   -1.6370 C.ar  182  PHE182     -0.0000
     80  N         12.4430   -1.5050    0.5430 N.3   215  ALA215     -0.1231
     81  CA        11.0900   -2.0280    0.4280 C.3   215  ALA215      0.1694
     82  C         10.8520   -1.9960   -1.0900 C.2   215  ALA215      0.2593
     83  O         11.6850   -2.5150   -1.8350 O.2   215  ALA215     -0.2718
     84  CB        10.0950   -1.1510    1.1920 C.3   215  ALA215      0.0304
     85  N          9.7430   -1.4260   -1.5570 N.am  216  SER216     -0.1938
     86  CA         9.5000   -1.3330   -2.9960 C.3   216  SER216      0.2055
     87  C         10.0390    0.0130   -3.4860 C.2   216  SER216      0.2643
     88  O         10.7960    0.0640   -4.4520 O.2   216  SER216     -0.2714
     89  CB         8.0130   -1.4790   -3.3240 C.3   216  SER216      0.2130
     90  OG         7.8440   -1.6380   -4.7210 O.3   216  SER216     -0.2179
     91  N          9.6670    1.0900   -2.7930 N.am  217  ALA217     -0.1963
     92  CA        10.1350    2.4380   -3.1270 C.3   217  ALA217      0.1728
     93  C         11.2590    2.8790   -2.1960 C.2   217  ALA217      0.2617
     94  O         12.0300    3.7830   -2.5310 O.2   217  ALA217     -0.2715
     95  CB         9.0010    3.4270   -3.0520 C.3   217  ALA217      0.0334
     96  N         11.3260    2.2480   -1.0230 N.am  218  GLY218     -0.1940
     97  CA        12.3430    2.5710   -0.0340 C.3   218  GLY218      0.2014
     98  C         12.0980    3.8610    0.7240 C.2   218  GLY218      0.2639
     99  O         13.0510    4.5860    1.0660 O.2   218  GLY218     -0.2714
    100  N         10.8200    4.1870    0.9320 N.am  219  ILE219     -0.1963
    101  CA        10.4390    5.3940    1.6670 C.3   219  ILE219      0.1727
    102  C          9.4260    5.1810    2.7960 C.2   219  ILE219      0.2617
    103  O          9.6140    5.7150    3.8830 O.2   219  ILE219     -0.2715
    104  CB         9.9530    6.5710    0.7380 C.3   219  ILE219      0.0290
    105  CG1        8.6900    6.1870   -0.0490 C.3   219  ILE219      0.0022
    106  CG2       11.0920    7.0500   -0.1740 C.3   219  ILE219      0.0023
    107  CD1        8.0900    7.3170   -0.8620 C.3   219  ILE219      0.0001
    108  N          8.3830    4.3800    2.5440 N.am  220  GLY220     -0.1940
    109  CA         7.3310    4.1350    3.5310 C.3   220  GLY220      0.2014
    110  C          7.6960    3.2520    4.7080 C.2   220  GLY220      0.2638
    111  O          7.8910    3.7340    5.8340 O.2   220  GLY220     -0.2714
    112  N          7.7750    1.9520    4.4350 N.am  221  ARG221     -0.1977
    113  CA         8.1350    0.9460    5.4250 C.3   221  ARG221      0.1597
    114  C          9.5860    1.1350    5.8890 C.2   221  ARG221      0.2287
    115  O          9.8920    0.9520    7.0740 O.2   221  ARG221     -0.2864
    116  CB         7.9130   -0.4550    4.8400 C.3   221  ARG221      0.0334
    117  CG         6.4300   -0.7510    4.5500 C.3   221  ARG221      0.0492
    118  CD         6.2150   -1.9950    3.7010 C.3   221  ARG221      0.2205
    119  NE         6.4390   -1.7250    2.2810 N.pl3 221  ARG221     -0.0865
    120  CZ         6.1580   -2.5770    1.3000 C.cat 221  ARG221      0.5346
    121  NH1        5.6340   -3.7660    1.5690 N.pl3 221  ARG221      0.1354
    122  NH2        6.4070   -2.2430    0.0430 N.pl3 221  ARG221      0.1354
    123  N          4.8610    7.0080    4.7150 N.3   262  GLN262     -0.1245
    124  CA         3.8350    7.3080    3.7140 C.3   262  GLN262      0.1566
    125  C          2.3900    7.5620    4.1430 C.2   262  GLN262      0.2260
    126  O          1.6500    8.2240    3.4070 O.2   262  GLN262     -0.2867
    127  CB         3.8700    6.2680    2.5940 C.3   262  GLN262      0.0367
    128  CG         4.9810    6.4870    1.5710 C.3   262  GLN262      0.0905
    129  CD         4.7580    7.7010    0.6820 C.2   262  GLN262      0.2608
    130  OE1        3.9950    7.6430   -0.2830 O.2   262  GLN262     -0.2717
    131  NE2        5.4500    8.7940    0.9840 N.am  262  GLN262     -0.0878
    132  N          1.2470    4.8770    9.7550 N.3   266  GLN266     -0.1245
    133  CA         2.6650    4.4820    9.8390 C.3   266  GLN266      0.1566
    134  C          3.4000    5.3640   10.8560 C.2   266  GLN266      0.2260
    135  O          4.3010    4.8920   11.5530 O.2   266  GLN266     -0.2867
    136  CB         3.3540    4.5550    8.4700 C.3   266  GLN266      0.0367
    137  CG         2.9960    3.4150    7.5110 C.3   266  GLN266      0.0905
    138  CD         3.7480    3.4780    6.1790 C.2   266  GLN266      0.2608
    139  OE1        4.2720    4.5270    5.7860 O.2   266  GLN266     -0.2717
    140  NE2        3.7980    2.3460    5.4780 N.am  266  GLN266     -0.0878
@<TRIPOS>BOND
     1    40    41    1
     2    40    39    1
     3    41    42    1
     4    44    43    1
     5    42    43    2
     6    43    45    1
     7    39    36    1
     8    36    35    1
     9    36    37    1
    10    15    14    2
    11    35    25   am
    12    14    13    1
    13    14    23   am
    14    12    13    1
    15    13    16    1
    16    38    37    2
    17    37    46   am
    18    25    24    1
    19    25    26    2
    20    23    24    1
    21    24    27    1
    22    21    20    1
    23    16    17    1
    24    46    47    1
    25    17    18    1
    26    22    20    1
    27    20    19    2
    28    30    32   ar
    29    30    28   ar
    30    27    28    1
    31    19    18    1
    32    47    50    1
    33    47    48    1
    34    32    33   ar
    35    52    51   ar
    36    28    29   ar
    37    50    51    1
    38    51    53   ar
    39    57    56    2
    40    33    34    1
    41    33    31   ar
    42    54    48   am
    43    54    55    1
    44    48    49    2
    45    29    31   ar
    46    56    55    1
    47    55    58    1
    48    58    60    1
    49    58    59    1
    50    90    89    1
    51    88    87    2
    52    87    86    1
    53    87    91   am
    54    89    86    1
    55    92    95    1
    56    92    91    1
    57    92    93    1
    58    86    85    1
    59    94    93    2
    60    68    66   ar
    61    93    96   am
    62    83    82    2
    63    78    79   ar
    64    78    76   ar
    65    79    77   ar
    66    85    82   am
    67    82    81    1
    68    96    97    1
    69    66    67   ar
    70    66    65    1
    71   107   105    1
    72    76    74   ar
    73    77    75   ar
    74    11     9    1
    75    65    62    1
    76   130   129    2
    77   106   104    1
    78   105   104    1
    79    97    98    1
    80   122   120    1
    81    81    80    1
    82    81    84    1
    83    74    75   ar
    84    74    73    1
    85   129   131   am
    86   129   128    1
    87    98   100   am
    88    98    99    2
    89   104   101    1
    90     9    10    1
    91     9     8    2
    92   100   101    1
    93    62    63    1
    94    62    61    1
    95   120   121    1
    96   120   119    2
    97   128   127    1
    98   101   102    1
    99    63    64    2
   100    63    69   am
   101    73    70    1
   102     8     7    1
   103    69    70    1
   104   119   118    1
   105   108   102   am
   106   108   109    1
   107   127   124    1
   108   102   103    2
   109    70    71    1
   110     4     3    2
   111     7     6    1
   112   126   125    2
   113   109   110    1
   114   118   117    1
   115   124   125    1
   116   124   123    1
   117     5     6    1
   118     5     2    1
   119     3     2    1
   120    71    72    2
   121   112   110   am
   122   112   113    1
   123   117   116    1
   124     2     1    1
   125   110   111    2
   126   116   113    1
   127   113   114    1
   128   140   138   am
   129   139   138    2
   130   114   115    2
   131   138   137    1
   132   137   136    1
   133   136   133    1
   134   132   133    1
   135   133   134    1
   136   134   135    2
