@<TRIPOS>MOLECULE
tmp/1g1lF01.pdb
 157 156 0 0 0
SMALL
GASTEIGER

@<TRIPOS>ATOM
      1  N         38.9150   24.0760  -13.0010 N.3    41  SER41      -0.1217
      2  CA        39.9480   24.9580  -13.4990 C.3    41  SER41       0.1889
      3  C         40.2340   24.6810  -14.9580 C.2    41  SER41       0.2288
      4  O         40.5340   25.6070  -15.7220 O.2    41  SER41      -0.2866
      5  CB        41.2430   24.7750  -12.6970 C.3    41  SER41       0.2089
      6  OG        41.0310   25.3210  -11.4050 O.3    41  SER41      -0.2183
      7  N         40.0470   27.4570  -17.8520 N.3    45  LEU45      -0.1245
      8  CA        41.2120   27.7590  -18.6870 C.3    45  LEU45       0.1561
      9  C         40.9310   27.5990  -20.1440 C.2    45  LEU45       0.2260
     10  O         41.5910   28.2200  -20.9650 O.2    45  LEU45      -0.2867
     11  CB        42.4420   26.9560  -18.2900 C.3    45  LEU45       0.0270
     12  CG        42.9870   27.3670  -16.9290 C.3    45  LEU45       0.0019
     13  CD1       43.9110   26.3210  -16.4490 C.3    45  LEU45       0.0001
     14  CD2       43.6670   28.6740  -17.0910 C.3    45  LEU45       0.0001
     15  N         44.9520   17.6800  -14.9160 N.3   113  TYR113     -0.1227
     16  CA        45.9010   17.9910  -15.9660 C.3   113  TYR113      0.1736
     17  C         46.7800   19.1290  -15.4450 C.2   113  TYR113      0.2595
     18  O         46.2870   19.9780  -14.6940 O.2   113  TYR113     -0.2718
     19  CB        45.1770   18.5590  -17.2290 C.3   113  TYR113      0.0548
     20  CG        44.2350   17.5590  -17.8690 C.ar  113  TYR113     -0.0200
     21  CD1       42.9090   17.3690  -17.4170 C.ar  113  TYR113     -0.0009
     22  CD2       44.6470   16.8280  -18.9240 C.ar  113  TYR113     -0.0009
     23  CE1       42.1210   16.3880  -17.9850 C.ar  113  TYR113      0.0417
     24  CE2       43.8160   15.8800  -19.5070 C.ar  113  TYR113      0.0417
     25  CZ        42.5760   15.6640  -19.0260 C.ar  113  TYR113      0.1957
     26  OH        41.7850   14.7310  -19.6670 O.3   113  TYR113     -0.2866
     27  N         48.0650   19.1240  -15.8400 N.am  114  TYR114     -0.1962
     28  CA        48.9750   20.2200  -15.5360 C.3   114  TYR114      0.1771
     29  C         50.1300   20.3480  -16.4870 C.2   114  TYR114      0.2620
     30  O         50.8380   19.3920  -16.7650 O.2   114  TYR114     -0.2715
     31  CB        49.5320   20.1350  -14.0680 C.3   114  TYR114      0.0574
     32  CG        50.1360   21.4250  -13.6170 C.ar  114  TYR114     -0.0198
     33  CD1       49.3610   22.4200  -13.0410 C.ar  114  TYR114     -0.0009
     34  CD2       51.4760   21.6780  -13.8200 C.ar  114  TYR114     -0.0009
     35  CE1       49.8860   23.6230  -12.6790 C.ar  114  TYR114      0.0417
     36  CE2       52.0930   22.9210  -13.4180 C.ar  114  TYR114      0.0417
     37  CZ        51.2920   23.8860  -12.8760 C.ar  114  TYR114      0.1957
     38  OH        51.8230   25.0790  -12.4900 O.3   114  TYR114     -0.2866
     39  N         50.3850   21.5750  -16.9260 N.am  115  GLY115     -0.1940
     40  CA        51.6770   21.8120  -17.5410 C.3   115  GLY115      0.2014
     41  C         51.7440   23.0960  -18.3330 C.2   115  GLY115      0.2639
     42  O         50.7740   23.8290  -18.4060 O.2   115  GLY115     -0.2714
     43  N         52.9050   23.3270  -18.9530 N.am  116  HIS116     -0.1959
     44  CA        53.1920   24.5810  -19.5870 C.3   116  HIS116      0.1787
     45  C         52.3930   24.7410  -20.8990 C.2   116  HIS116      0.2620
     46  O         52.3200   23.7810  -21.7070 O.2   116  HIS116     -0.2715
     47  CB        54.6530   24.6260  -19.9190 C.3   116  HIS116      0.0785
     48  CG        55.0810   25.8330  -20.6920 C.ar  116  HIS116      0.0821
     49  ND1       54.8630   27.1360  -20.2570 N.ar  116  HIS116     -0.2267
     50  CD2       55.6230   25.9340  -21.9320 C.ar  116  HIS116      0.1154
     51  CE1       55.3860   27.9730  -21.1400 C.ar  116  HIS116      0.1986
     52  NE2       55.8310   27.2850  -22.1750 N.ar  116  HIS116     -0.2212
     53  N         51.7900   25.9100  -21.0670 N.am  117  ASP117     -0.1957
     54  CA        50.9310   26.2030  -22.2130 C.3   117  ASP117      0.1840
     55  C         49.6780   25.3050  -22.3590 C.2   117  ASP117      0.2622
     56  O         49.1960   25.0680  -23.4510 O.2   117  ASP117     -0.2715
     57  CB        51.7780   26.2370  -23.4730 C.3   117  ASP117      0.1450
     58  CG        52.5840   27.5050  -23.5650 C.2   117  ASP117      0.3671
     59  OD1       52.5650   28.3150  -22.5940 O.co2 117  ASP117     -0.2456
     60  OD2       53.3190   27.7500  -24.5290 O.co2 117  ASP117     -0.2456
     61  N         49.1920   24.7740  -21.2720 N.am  118  PHE118     -0.1960
     62  CA        47.9530   24.0210  -21.2750 C.3   118  PHE118      0.1771
     63  C         46.8270   24.9610  -21.6920 C.2   118  PHE118      0.2620
     64  O         45.9820   24.5970  -22.5060 O.2   118  PHE118     -0.2715
     65  CB        47.7030   23.4360  -19.8760 C.3   118  PHE118      0.0574
     66  CG        46.5050   22.5300  -19.7740 C.ar  118  PHE118     -0.0200
     67  CD1       46.3280   21.5100  -20.6750 C.ar  118  PHE118     -0.0042
     68  CD2       45.5960   22.6400  -18.7020 C.ar  118  PHE118     -0.0042
     69  CE1       45.2550   20.6470  -20.5630 C.ar  118  PHE118     -0.0003
     70  CE2       44.5280   21.7740  -18.6320 C.ar  118  PHE118     -0.0003
     71  CZ        44.3850   20.7860  -19.5800 C.ar  118  PHE118     -0.0000
     72  N         46.8630   26.2050  -21.2260 N.am  119  HIS119     -0.1959
     73  CA        45.8600   27.1610  -21.6650 C.3   119  HIS119      0.1787
     74  C         45.7640   27.2680  -23.1820 C.2   119  HIS119      0.2620
     75  O         44.7090   27.3010  -23.7070 O.2   119  HIS119     -0.2715
     76  CB        45.9680   28.4710  -20.9000 C.3   119  HIS119      0.0785
     77  CG        46.7600   29.5820  -21.4930 C.ar  119  HIS119      0.0821
     78  ND1       47.9440   30.0130  -20.9030 N.ar  119  HIS119     -0.2267
     79  CD2       46.4550   30.4980  -22.4420 C.ar  119  HIS119      0.1154
     80  CE1       48.3800   31.0890  -21.5320 C.ar  119  HIS119      0.1986
     81  NE2       47.5000   31.4020  -22.4800 N.ar  119  HIS119     -0.2212
     82  N         46.8860   27.2600  -23.8720 N.am  120  GLU120     -0.1977
     83  CA        46.9170   27.3960  -25.3060 C.3   120  GLU120      0.1602
     84  C         46.3940   26.1020  -25.9650 C.2   120  GLU120      0.2287
     85  O         45.5800   26.1590  -26.9400 O.2   120  GLU120     -0.2864
     86  CB        48.3760   27.7590  -25.7820 C.3   120  GLU120      0.0415
     87  CG        48.8020   29.2250  -25.5360 C.3   120  GLU120      0.1163
     88  CD        49.5650   29.4690  -24.2250 C.2   120  GLU120      0.3649
     89  OE1       49.4730   28.6090  -23.3500 O.co2 120  GLU120     -0.2457
     90  OE2       50.2980   30.5240  -24.1150 O.co2 120  GLU120     -0.2457
     91  N         49.6590   28.5860   -6.3600 N.3   249  LYS249     -0.1231
     92  CA        48.7340   27.4960   -6.2400 C.3   249  LYS249      0.1693
     93  C         48.1780   27.0140   -7.5900 C.2   249  LYS249      0.2592
     94  O         47.9440   27.7930   -8.5460 O.2   249  LYS249     -0.2718
     95  CB        47.6120   27.8670   -5.2690 C.3   249  LYS249      0.0285
     96  CG        48.1760   28.0650   -3.8550 C.3   249  LYS249      0.0035
     97  CD        47.1500   28.2730   -2.7600 C.3   249  LYS249      0.0206
     98  CE        47.7770   27.9130   -1.3890 C.3   249  LYS249      0.1093
     99  NZ        49.3090   28.1020   -1.2500 N.3   249  LYS249     -0.1314
    100  N         48.0040   25.7090   -7.6740 N.am  250  VAL250     -0.1966
    101  CA        47.3910   25.0570   -8.8210 C.3   250  VAL250      0.1727
    102  C         45.9040   25.0220   -8.7460 C.2   250  VAL250      0.2616
    103  O         45.3490   24.6050   -7.7210 O.2   250  VAL250     -0.2715
    104  CB        47.8260   23.6580   -8.9140 C.3   250  VAL250      0.0290
    105  CG1       47.1530   22.9680  -10.1700 C.3   250  VAL250      0.0023
    106  CG2       49.3720   23.6610   -9.0360 C.3   250  VAL250      0.0023
    107  N         45.2440   25.3830   -9.8150 N.am  251  ALA251     -0.1963
    108  CA        43.7490   25.2410   -9.8190 C.3   251  ALA251      0.1728
    109  C         42.9670   25.9940   -8.7430 C.2   251  ALA251      0.2616
    110  O         41.9510   25.4360   -8.1650 O.2   251  ALA251     -0.2715
    111  CB        43.3460   23.7850   -9.8030 C.3   251  ALA251      0.0334
    112  N         43.3660   27.2340   -8.4740 N.am  252  CYS252     -0.1968
    113  CA        42.5950   28.1240   -7.6510 C.3   252  CYS252      0.1712
    114  C         41.5970   28.8760   -8.5640 C.2   252  CYS252      0.2296
    115  O         41.9970   29.7230   -9.3230 O.2   252  CYS252     -0.2864
    116  CB        43.5730   29.0500   -6.9200 C.3   252  CYS252      0.0983
    117  SG        42.9540   30.5160   -6.1910 S.3   252  CYS252     -0.0798
    118  N         41.7920   32.6750   -8.5380 N.3   255  GLU255     -0.1231
    119  CA        42.9050   33.2420   -9.2620 C.3   255  GLU255      0.1699
    120  C         42.6200   33.2410  -10.7680 C.2   255  GLU255      0.2592
    121  O         42.7590   34.2490  -11.4600 O.2   255  GLU255     -0.2718
    122  CB        44.2070   32.4900   -8.9370 C.3   255  GLU255      0.0402
    123  CG        45.3360   32.8840   -9.8620 C.3   255  GLU255      0.1161
    124  CD        46.6770   32.2300   -9.5470 C.2   255  GLU255      0.3649
    125  OE1       46.7530   31.1770   -8.8480 O.co2 255  GLU255     -0.2457
    126  OE2       47.6750   32.7600  -10.0520 O.co2 255  GLU255     -0.2457
    127  N         42.1730   32.1060  -11.2830 N.am  256  ILE256     -0.1980
    128  CA        41.8880   32.0120  -12.7050 C.3   256  ILE256      0.1595
    129  C         40.7990   33.0220  -13.1440 C.2   256  ILE256      0.2287
    130  O         40.9860   33.7000  -14.1630 O.2   256  ILE256     -0.2864
    131  CB        41.5580   30.5590  -13.0740 C.3   256  ILE256      0.0276
    132  CG1       42.8170   29.6860  -12.8890 C.3   256  ILE256      0.0022
    133  CG2       41.0900   30.4490  -14.5460 C.3   256  ILE256      0.0022
    134  CD1       42.5500   28.2460  -12.9580 C.3   256  ILE256      0.0001
    135  N         42.5070   36.4090  -13.2840 N.3   259  ARG259     -0.1245
    136  CA        43.4050   36.5540  -14.4230 C.3   259  ARG259      0.1563
    137  C         42.7110   36.6970  -15.7640 C.2   259  ARG259      0.2260
    138  O         43.2330   37.3960  -16.6370 O.2   259  ARG259     -0.2867
    139  CB        44.3870   35.3970  -14.5350 C.3   259  ARG259      0.0307
    140  CG        45.4110   35.4500  -13.4870 C.3   259  ARG259      0.0489
    141  CD        46.4870   34.3640  -13.4910 C.3   259  ARG259      0.2205
    142  NE        46.9980   34.4950  -12.1480 N.pl3 259  ARG259     -0.0865
    143  CZ        47.9160   35.3770  -11.8040 C.cat 259  ARG259      0.5346
    144  NH1       48.5310   36.0630  -12.7640 N.pl3 259  ARG259      0.1354
    145  NH2       48.2700   35.5220  -10.5380 N.pl3 259  ARG259      0.1354
    146  N         53.8810   36.5380  -13.9950 N.3   293  TYR293     -0.1298
    147  CA        53.9750   36.3420  -15.4440 C.3   293  TYR293      0.1290
    148  C         53.5560   34.9730  -15.8780 C.3   293  TYR293      0.2013
    149  O         53.3230   34.8990  -17.0940 O.3   293  TYR293     -0.2188
    150  CB        55.3390   36.6440  -15.9750 C.3   293  TYR293      0.0480
    151  CG        55.8630   37.9960  -15.5650 C.ar  293  TYR293     -0.0204
    152  CD1       56.8980   38.1270  -14.6620 C.ar  293  TYR293     -0.0009
    153  CD2       55.3390   39.1610  -16.1060 C.ar  293  TYR293     -0.0009
    154  CE1       57.3750   39.3350  -14.2940 C.ar  293  TYR293      0.0417
    155  CE2       55.8460   40.4010  -15.7400 C.ar  293  TYR293      0.0417
    156  CZ        56.8790   40.4670  -14.8230 C.ar  293  TYR293      0.1957
    157  OH        57.4300   41.6720  -14.3860 O.3   293  TYR293     -0.2866
@<TRIPOS>BOND
     1    85    84    2
     2    84    83    1
     3    86    87    1
     4    86    83    1
     5    87    88    1
     6    83    82    1
     7    60    58   ar
     8    88    90   ar
     9    88    89   ar
    10    82    74   am
    11    75    74    2
    12    58    57    1
    13    58    59   ar
    14    57    54    1
    15    56    55    2
    16    74    73    1
    17    64    63    2
    18    81    79   ar
    19    81    80   ar
    20    79    77   ar
    21    55    54    1
    22    55    61   am
    23    54    53    1
    24    52    50   ar
    25    52    51   ar
    26    50    48   ar
    27    46    45    2
    28    63    62    1
    29    63    72   am
    30    73    72    1
    31    73    76    1
    32    80    78   ar
    33    77    78   ar
    34    77    76    1
    35    62    61    1
    36    62    65    1
    37    51    49   ar
    38    53    45   am
    39    10     9    2
    40    45    44    1
    41    48    49   ar
    42    48    47    1
    43    67    69   ar
    44    67    66   ar
    45    69    71   ar
    46     9     8    1
    47    47    44    1
    48    65    66    1
    49    66    68   ar
    50    26    25    1
    51    44    43    1
    52    71    70   ar
    53    24    25   ar
    54    24    22   ar
    55    25    23   ar
    56    43    41   am
    57    22    20   ar
    58    68    70   ar
    59     8    11    1
    60     8     7    1
    61    42    41    2
    62    41    40    1
    63    11    12    1
    64    23    21   ar
    65    20    21   ar
    66    20    19    1
    67    40    39    1
    68    19    16    1
    69   149   148    1
    70    14    12    1
    71    12    13    1
    72    39    29   am
    73    30    29    2
    74   138   137    2
    75    29    28    1
    76   153   155   ar
    77   153   151   ar
    78   150   151    1
    79   150   147    1
    80    16    17    1
    81    16    15    1
    82   148   147    1
    83    27    28    1
    84    27    17   am
    85   137   136    1
    86   155   156   ar
    87     4     3    2
    88   151   152   ar
    89    28    31    1
    90    17    18    2
    91   147   146    1
    92     3     2    1
    93   156   157    1
    94   156   154   ar
    95   152   154   ar
    96   133   131    1
    97   139   136    1
    98   139   140    1
    99   136   135    1
   100   130   129    2
   101    31    32    1
   102    34    32   ar
   103    34    36   ar
   104    32    33   ar
   105     2     1    1
   106     2     5    1
   107   141   140    1
   108   141   142    1
   109    36    37   ar
   110   129   128    1
   111   131   132    1
   112   131   128    1
   113    33    35   ar
   114   134   132    1
   115    37    35   ar
   116    37    38    1
   117   144   143    1
   118   128   127    1
   119     5     6    1
   120   142   143    2
   121   143   145    1
   122   121   120    2
   123   127   120   am
   124   120   119    1
   125   105   104    1
   126   126   124   ar
   127   123   124    1
   128   123   122    1
   129   108   107    1
   130   108   111    1
   131   108   109    1
   132   107   102   am
   133   124   125   ar
   134   115   114    2
   135   119   122    1
   136   119   118    1
   137   106   104    1
   138   104   101    1
   139   101   102    1
   140   101   100    1
   141   102   103    2
   142   109   112   am
   143   109   110    2
   144   114   113    1
   145    94    93    2
   146   112   113    1
   147   100    93   am
   148   113   116    1
   149    93    92    1
   150   116   117    1
   151    91    92    1
   152    92    95    1
   153    95    96    1
   154    96    97    1
   155    97    98    1
   156    98    99    1
