@<TRIPOS>MOLECULE
tmp/1g21G00.pdb
 183 173 0 0 0
SMALL
GASTEIGER

@<TRIPOS>ATOM
      1  N        -59.8590   22.5880   32.8150 N.3    10  GLY10      -0.1210
      2  CA       -59.6550   21.5860   33.8490 C.3    10  GLY10       0.1956
      3  C        -60.9580   21.2840   34.5780 C.2    10  GLY10       0.2612
      4  O        -61.6390   22.2000   35.0320 O.2    10  GLY10      -0.2717
      5  N        -61.3180   20.0140   34.6860 N.am   11  GLY11      -0.1942
      6  CA       -62.5460   19.7060   35.3790 C.3    11  GLY11       0.2014
      7  C        -63.8060   19.6260   34.5250 C.2    11  GLY11       0.2639
      8  O        -64.8940   19.8020   35.0710 O.2    11  GLY11      -0.2714
      9  N        -63.6920   19.3630   33.2190 N.am   12  ILE12      -0.1963
     10  CA       -64.9020   19.2440   32.3740 C.3    12  ILE12       0.1727
     11  C        -64.9570   17.9110   31.6540 C.2    12  ILE12       0.2617
     12  O        -66.0090   17.5220   31.1510 O.2    12  ILE12      -0.2715
     13  CB       -64.9930   20.3060   31.2860 C.3    12  ILE12       0.0290
     14  CG1      -63.8320   20.1100   30.3120 C.3    12  ILE12       0.0022
     15  CG2      -65.0240   21.6910   31.9080 C.3    12  ILE12       0.0023
     16  CD1      -63.8140   21.0860   29.1690 C.3    12  ILE12       0.0001
     17  N        -63.8160   17.2270   31.5490 N.am   13  GLY13      -0.1940
     18  CA       -63.8600   15.9020   30.9280 C.3    13  GLY13       0.2014
     19  C        -62.9150   15.5120   29.8260 C.2    13  GLY13       0.2639
     20  O        -63.2670   14.7280   28.9480 O.2    13  GLY13      -0.2714
     21  N        -61.7000   16.0000   29.8400 N.am   14  LYS14      -0.1963
     22  CA       -60.7750   15.6370   28.7930 C.3    14  LYS14       0.1728
     23  C        -60.3570   14.1370   28.7630 C.2    14  LYS14       0.2617
     24  O        -60.7420   13.3870   27.8550 O.2    14  LYS14      -0.2715
     25  CB       -59.5530   16.5250   28.8940 C.3    14  LYS14       0.0311
     26  CG       -59.8900   18.0070   28.9520 C.3    14  LYS14       0.0038
     27  CD       -58.6290   18.8210   29.0620 C.3    14  LYS14       0.0206
     28  CE       -58.9250   20.1530   29.7130 C.3    14  LYS14       0.1093
     29  NZ       -58.2260   20.2830   31.0110 N.3    14  LYS14      -0.1314
     30  N        -59.5870   13.7220   29.7660 N.am   15  SER15      -0.1936
     31  CA       -59.0690   12.3470   29.8360 C.3    15  SER15       0.2055
     32  C        -60.0620   11.1690   29.6170 C.2    15  SER15       0.2643
     33  O        -59.8290   10.2680   28.7970 O.2    15  SER15      -0.2714
     34  CB       -58.2840   12.1850   31.1570 C.3    15  SER15       0.2130
     35  OG       -58.8440   12.9460   32.2310 O.3    15  SER15      -0.2179
     36  N        -61.1650   11.1760   30.3480 N.am   16  THR16      -0.1950
     37  CA       -62.1410   10.1200   30.2000 C.3    16  THR16       0.1897
     38  C        -62.7180   10.1420   28.8020 C.2    16  THR16       0.2313
     39  O        -62.8400    9.0840   28.1630 O.2    16  THR16      -0.2863
     40  CB       -63.2870   10.2790   31.1920 C.3    16  THR16       0.1794
     41  OG1      -63.5490   11.6690   31.3930 O.3    16  THR16      -0.2208
     42  CG2      -62.9460    9.6240   32.5080 C.3    16  THR16       0.0378
     43  N        -49.9870   16.0590   30.1160 N.3    38  ASP38      -0.1239
     44  CA       -50.4810   16.6180   31.3830 C.3    38  ASP38       0.1674
     45  C        -49.6810   16.0950   32.5580 C.2    38  ASP38       0.2266
     46  O        -49.4130   14.9050   32.6480 O.2    38  ASP38      -0.2867
     47  CB       -51.9550   16.2640   31.6050 C.3    38  ASP38       0.1410
     48  CG       -52.5320   16.8940   32.8770 C.2    38  ASP38       0.3668
     49  OD1      -51.7490   17.2780   33.7720 O.co2  38  ASP38      -0.2456
     50  OD2      -53.7780   16.9890   32.9890 O.co2  38  ASP38      -0.2456
     51  N        -50.5370   15.8360   35.7490 N.3    40  LYS40      -0.1245
     52  CA       -51.2680   14.9490   36.6390 C.3    40  LYS40       0.1561
     53  C        -50.8940   13.4900   36.3390 C.2    40  LYS40       0.2260
     54  O        -50.7060   12.6980   37.2500 O.2    40  LYS40      -0.2867
     55  CB       -52.7810   15.1610   36.4770 C.3    40  LYS40       0.0271
     56  CG       -53.2560   16.5760   36.7840 C.3    40  LYS40       0.0035
     57  CD       -54.4530   16.5490   37.7000 C.3    40  LYS40       0.0206
     58  CE       -54.8290   17.9430   38.1760 C.3    40  LYS40       0.1093
     59  NZ       -55.9320   17.8730   39.1830 N.3    40  LYS40      -0.1314
     60  N        -52.6730   11.0200   34.2060 N.3    42  ASP42      -0.1239
     61  CA       -53.8240   10.1120   34.2440 C.3    42  ASP42       0.1674
     62  C        -54.4240    9.9130   32.8440 C.2    42  ASP42       0.2266
     63  O        -55.4240    9.2180   32.6830 O.2    42  ASP42      -0.2867
     64  CB       -54.8930   10.6530   35.2090 C.3    42  ASP42       0.1410
     65  CG       -55.1950   12.1380   34.9850 C.2    42  ASP42       0.3668
     66  OD1      -54.2780   12.8950   34.6070 O.co2  42  ASP42      -0.2456
     67  OD2      -56.3490   12.5530   35.1930 O.co2  42  ASP42      -0.2456
     68  N        -53.6280   14.4410   24.8260 N.3   124  ASP124     -0.1239
     69  CA       -54.4880   14.8600   25.9330 C.3   124  ASP124      0.1674
     70  C        -53.7620   16.0050   26.6300 C.2   124  ASP124      0.2266
     71  O        -52.9380   15.7790   27.5090 O.2   124  ASP124     -0.2867
     72  CB       -54.7100   13.7040   26.9160 C.3   124  ASP124      0.1410
     73  CG       -55.6120   14.0820   28.0780 C.2   124  ASP124      0.3668
     74  OD1      -55.9840   13.1680   28.8490 O.co2 124  ASP124     -0.2456
     75  OD2      -55.9400   15.2810   28.2230 O.co2 124  ASP124     -0.2456
     76  N        -53.5280   19.2690   29.0870 N.3   126  GLY126     -0.1225
     77  CA       -54.2150   19.7980   30.2540 C.3   126  GLY126      0.1811
     78  C        -54.4740   21.2780   30.0610 C.2   126  GLY126      0.2280
     79  O        -54.9090   21.6960   28.9780 O.2   126  GLY126     -0.2866
     80  N        -69.5330   17.3630   27.0040 N.3   183  ASN183     -0.1225
     81  CA       -69.6150   16.3290   28.0040 C.3   183  ASN183      0.1785
     82  C        -70.5110   16.9560   29.0920 C.2   183  ASN183      0.2598
     83  O        -70.1600   17.9710   29.7010 O.2   183  ASN183     -0.2718
     84  CB       -68.2030   15.9590   28.4580 C.3   183  ASN183      0.1169
     85  CG       -68.1540   15.3720   29.8160 C.2   183  ASN183      0.2627
     86  OD1      -69.1070   14.7600   30.2650 O.2   183  ASN183     -0.2716
     87  ND2      -67.0300   15.5490   30.4890 N.am  183  ASN183     -0.0877
     88  N        -71.7060   16.3760   29.2540 N.am  184  SER184     -0.1938
     89  CA       -72.7590   16.8300   30.1660 C.3   184  SER184      0.2055
     90  C        -72.3910   17.4460   31.5140 C.2   184  SER184      0.2642
     91  O        -71.6830   16.8650   32.3380 O.2   184  SER184     -0.2714
     92  CB       -73.7410   15.6760   30.4140 C.3   184  SER184      0.2130
     93  OG       -74.9540   16.1190   31.0080 O.3   184  SER184     -0.2179
     94  N        -72.9490   18.6240   31.7350 N.am  185  ARG185     -0.1977
     95  CA       -72.7620   19.3270   32.9740 C.3   185  ARG185      0.1597
     96  C        -74.1460   19.5370   33.6030 C.2   185  ARG185      0.2287
     97  O        -74.2930   20.2480   34.6110 O.2   185  ARG185     -0.2864
     98  CB       -72.0710   20.6620   32.7280 C.3   185  ARG185      0.0334
     99  CG       -71.6120   21.3120   34.0050 C.3   185  ARG185      0.0492
    100  CD       -70.7210   20.4010   34.8230 C.3   185  ARG185      0.2205
    101  NE       -70.7010   20.8380   36.2110 N.pl3 185  ARG185     -0.0865
    102  CZ       -69.9940   20.2470   37.1640 C.cat 185  ARG185      0.5346
    103  NH1      -69.2490   19.1960   36.8650 N.pl3 185  ARG185      0.1354
    104  NH2      -70.0310   20.7050   38.4090 N.pl3 185  ARG185      0.1354
    105  N        -72.4020   14.2190   25.0050 N.3   209  VAL209     -0.1231
    106  CA       -72.0930   13.1620   25.9840 C.3   209  VAL209      0.1678
    107  C        -72.8250   13.3180   27.3030 C.2   209  VAL209      0.2434
    108  O        -72.6320   14.2750   28.0570 O.2   209  VAL209     -0.2733
    109  CB       -70.5650   13.0990   26.2450 C.3   209  VAL209      0.0265
    110  CG1      -70.2430   12.0380   27.3030 C.3   209  VAL209      0.0020
    111  CG2      -69.8350   12.7950   24.9330 C.3   209  VAL209      0.0020
    112  N        -73.6690   12.2850   27.5350 N.am  210  PRO210     -0.2718
    113  CA       -74.4830   12.1200   28.7940 C.3   210  PRO210      0.1535
    114  C        -73.7510   12.1970   30.1450 C.2   210  PRO210      0.2598
    115  O        -72.5510   12.0030   30.1910 O.2   210  PRO210     -0.2715
    116  CB       -75.2520   10.8460   28.5300 C.3   210  PRO210      0.0310
    117  CG       -75.5490   10.9860   27.0700 C.3   210  PRO210      0.0237
    118  CD       -74.5060   11.8340   26.4090 C.3   210  PRO210      0.0939
    119  N        -74.5230   12.4840   31.2040 N.am  211  ARG211     -0.1964
    120  CA       -74.0270   12.4250   32.5640 C.3   211  ARG211      0.1729
    121  C        -74.5960   11.1110   33.0850 C.2   211  ARG211      0.2616
    122  O        -75.6990   11.0540   33.6430 O.2   211  ARG211     -0.2715
    123  CB       -74.4130   13.6170   33.4640 C.3   211  ARG211      0.0348
    124  CG       -73.6380   13.7190   34.7840 C.3   211  ARG211      0.0492
    125  CD       -74.1170   14.9030   35.6190 C.3   211  ARG211      0.2205
    126  NE       -73.7800   14.7630   37.0350 N.pl3 211  ARG211     -0.0865
    127  CZ       -72.6030   15.0570   37.5510 C.cat 211  ARG211      0.5346
    128  NH1      -71.6340   15.5380   36.7870 N.pl3 211  ARG211      0.1354
    129  NH2      -72.3850   14.8770   38.8380 N.pl3 211  ARG211      0.1354
    130  N        -73.7740   10.0820   32.8490 N.am  212  ASP212     -0.1971
    131  CA       -73.9790    8.7100   33.2370 C.3   212  ASP212      0.1709
    132  C        -72.9710    8.4550   34.3680 C.2   212  ASP212      0.2293
    133  O        -71.8300    8.9130   34.3180 O.2   212  ASP212     -0.2864
    134  CB       -73.6960    7.7200   32.0730 C.3   212  ASP212      0.1436
    135  CG       -74.8700    6.8200   31.7210 C.2   212  ASP212      0.3671
    136  OD1      -75.7690    7.2880   30.9790 O.co2 212  ASP212     -0.2456
    137  OD2      -74.8880    5.6600   32.1840 O.co2 212  ASP212     -0.2456
    138  N        -69.3300    6.0370   34.5820 N.3   215  VAL215     -0.1231
    139  CA       -67.9570    6.4970   34.4750 C.3   215  VAL215      0.1692
    140  C        -67.2790    6.6500   35.8400 C.2   215  VAL215      0.2591
    141  O        -66.0560    6.6690   35.9310 O.2   215  VAL215     -0.2718
    142  CB       -67.8580    7.8110   33.6220 C.3   215  VAL215      0.0266
    143  CG1      -66.4270    8.1620   33.4020 C.3   215  VAL215      0.0020
    144  CG2      -68.4560    7.6090   32.2400 C.3   215  VAL215      0.0020
    145  N        -68.0600    6.7460   36.9060 N.am  216  GLN216     -0.1979
    146  CA       -67.4500    6.8150   38.2160 C.3   216  GLN216      0.1601
    147  C        -67.1600    5.3510   38.5140 C.2   216  GLN216      0.2287
    148  O        -66.1360    5.0210   39.0850 O.2   216  GLN216     -0.2864
    149  CB       -68.4060    7.4360   39.2470 C.3   216  GLN216      0.0394
    150  CG       -68.1920    8.9570   39.4430 C.3   216  GLN216      0.0908
    151  CD       -69.1860    9.8130   38.6550 C.2   216  GLN216      0.2608
    152  OE1      -69.7920    9.3520   37.6790 O.2   216  GLN216     -0.2717
    153  NE2      -69.3520   11.0670   39.0760 N.am  216  GLN216     -0.0878
    154  N        -64.2320    4.7860   36.4100 N.3   219  GLU219     -0.1245
    155  CA       -63.1680    5.6350   36.9720 C.3   219  GLU219      0.1567
    156  C        -62.5640    5.0860   38.2660 C.2   219  GLU219      0.2260
    157  O        -61.3510    4.8610   38.3690 O.2   219  GLU219     -0.2867
    158  CB       -63.6960    7.0560   37.2400 C.3   219  GLU219      0.0388
    159  CG       -62.8710    7.8270   38.2620 C.3   219  GLU219      0.1160
    160  CD       -63.5570    9.0770   38.7810 C.2   219  GLU219      0.3649
    161  OE1      -64.7020    8.9820   39.2790 O.co2 219  GLU219     -0.2457
    162  OE2      -62.9370   10.1600   38.7020 O.co2 219  GLU219     -0.2457
    163  N        -73.9280    4.7320   27.9220 N.3   234  GLN234     -0.1245
    164  CA       -72.8480    5.6360   27.5510 C.3   234  GLN234      0.1566
    165  C        -71.6360    4.9740   26.9080 C.2   234  GLN234      0.2260
    166  O        -70.6630    5.6590   26.5700 O.2   234  GLN234     -0.2867
    167  CB       -72.4060    6.4570   28.7630 C.3   234  GLN234      0.0367
    168  CG       -71.4940    7.6070   28.3890 C.3   234  GLN234      0.0905
    169  CD       -71.6190    8.7770   29.3360 C.2   234  GLN234      0.2608
    170  OE1      -70.7960    8.9590   30.2310 O.2   234  GLN234     -0.2717
    171  NE2      -72.6610    9.5770   29.1470 N.am  234  GLN234     -0.0878
    172  N        -69.8660    7.0510   23.7890 N.3   238  TYR238     -0.1241
    173  CA       -68.4440    7.2460   23.5480 C.3   238  TYR238      0.1605
    174  C        -68.0500    6.6360   22.2040 C.2   238  TYR238      0.2264
    175  O        -67.1310    7.1260   21.5430 O.2   238  TYR238     -0.2867
    176  CB       -67.6060    6.6480   24.6990 C.3   238  TYR238      0.0534
    177  CG       -67.6350    7.4860   25.9620 C.ar  238  TYR238     -0.0201
    178  CD1      -67.4050    8.8590   25.9010 C.ar  238  TYR238     -0.0009
    179  CD2      -67.9190    6.9200   27.2070 C.ar  238  TYR238     -0.0009
    180  CE1      -67.4620    9.6550   27.0380 C.ar  238  TYR238      0.0417
    181  CE2      -67.9740    7.7110   28.3550 C.ar  238  TYR238      0.0417
    182  CZ       -67.7450    9.0790   28.2590 C.ar  238  TYR238      0.1957
    183  OH       -67.8010    9.8830   29.3720 O.3   238  TYR238     -0.2866
@<TRIPOS>BOND
     1   175   174    2
     2   174   173    1
     3   173   172    1
     4   173   176    1
     5   176   177    1
     6    68    69    1
     7   111   109    1
     8   105   106    1
     9   178   177   ar
    10   178   180   ar
    11    69    70    1
    12    69    72    1
    13   177   179   ar
    14   106   109    1
    15   106   107    1
    16   109   110    1
    17   118   117    1
    18   118   112    1
    19   166   165    2
    20    70    71    2
    21   165   164    1
    22    72    73    1
    23    80    81    1
    24   180   182   ar
    25   117   116    1
    26   179   181   ar
    27   107   112   am
    28   107   108    2
    29   112   113    1
    30   164   163    1
    31   164   167    1
    32    24    23    2
    33    81    84    1
    34    81    82    1
    35    73    75   ar
    36    73    74   ar
    37    39    38    2
    38   182   181   ar
    39   182   183    1
    40   168   167    1
    41   168   169    1
    42    84    85    1
    43   116   113    1
    44    23    22    1
    45    23    30   am
    46    22    25    1
    47    22    21    1
    48   113   114    1
    49    33    32    2
    50    38    37    1
    51    25    26    1
    52    20    19    2
    53    26    27    1
    54    79    78    2
    55    27    28    1
    56    76    77    1
    57    82    88   am
    58    82    83    2
    59   171   169   am
    60    16    14    1
    61    88    89    1
    62   169   170    2
    63    32    31    1
    64    32    36   am
    65    28    29    1
    66    30    31    1
    67    85    86    2
    68    85    87   am
    69    19    21   am
    70    19    18    1
    71    31    34    1
    72    78    77    1
    73    43    44    1
    74   114   115    2
    75   114   119   am
    76    89    92    1
    77    89    90    1
    78    37    36    1
    79    37    40    1
    80    14    13    1
    81    92    93    1
    82    18    17    1
    83   136   135   ar
    84    12    11    2
    85    34    35    1
    86    40    41    1
    87    40    42    1
    88   119   120    1
    89    13    15    1
    90    13    10    1
    91    44    47    1
    92    44    45    1
    93    90    94   am
    94    90    91    2
    95    17    11   am
    96    47    48    1
    97    11    10    1
    98   135   134    1
    99   135   137   ar
   100    94    95    1
   101   134   131    1
   102   144   142    1
   103    10     9    1
   104    45    46    2
   105   120   121    1
   106   120   123    1
   107    63    62    2
   108    98    95    1
   109    98    99    1
   110     1     2    1
   111    62    61    1
   112   130   121   am
   113   130   131    1
   114    48    50   ar
   115    48    49   ar
   116    95    96    1
   117   121   122    2
   118     9     7   am
   119   131   132    1
   120   143   142    1
   121   123   124    1
   122    96    97    2
   123   142   139    1
   124     2     3    1
   125    99   100    1
   126    60    61    1
   127    61    64    1
   128   133   132    2
   129   139   138    1
   130   139   140    1
   131     7     8    2
   132     7     6    1
   133     3     5   am
   134     3     4    2
   135    66    65   ar
   136     5     6    1
   137   124   125    1
   138   100   101    1
   139    65    67   ar
   140    65    64    1
   141   125   126    1
   142    51    52    1
   143   140   141    2
   144   140   145   am
   145   101   102    2
   146    53    52    1
   147    53    54    2
   148   154   155    1
   149    55    52    1
   150    55    56    1
   151    56    57    1
   152   128   127    1
   153   103   102    1
   154   145   146    1
   155   155   158    1
   156   155   156    1
   157   126   127    2
   158   102   104    1
   159   158   159    1
   160   127   129    1
   161   152   151    2
   162    57    58    1
   163    58    59    1
   164   146   147    1
   165   146   149    1
   166   159   160    1
   167   156   157    2
   168   147   148    2
   169   151   153   am
   170   151   150    1
   171   162   160   ar
   172   160   161   ar
   173   149   150    1
