@<TRIPOS>MOLECULE
tmp/1g27C00.pdb
 149 143 0 0 0
SMALL
GASTEIGER

@<TRIPOS>ATOM
      1  N        -10.4660    4.0580   36.5470 N.3    41  GLU41      -0.1231
      2  CA       -11.4890    3.6890   35.5530 C.3    41  GLU41       0.1699
      3  C        -12.4020    2.5180   35.9440 C.2    41  GLU41       0.2592
      4  O        -13.4280    2.2650   35.3130 O.2    41  GLU41      -0.2718
      5  CB       -10.8440    3.4650   34.2100 C.3    41  GLU41       0.0402
      6  CG        -9.8380    4.5200   33.8670 C.3    41  GLU41       0.1161
      7  CD       -10.3960    5.5810   32.9430 C.2    41  GLU41       0.3649
      8  OE1       -9.6930    6.5910   32.7330 O.co2  41  GLU41      -0.2457
      9  OE2      -11.5080    5.3880   32.3970 O.co2  41  GLU41      -0.2457
     10  N        -12.0130    1.8310   37.0070 N.am   42  GLU42      -0.1966
     11  CA       -12.7710    0.7290   37.5750 C.3    42  GLU42       0.1733
     12  C        -12.6710   -0.5980   36.8740 C.2    42  GLU42       0.2617
     13  O        -13.6550   -1.3450   36.7950 O.2    42  GLU42      -0.2715
     14  CB       -14.2040    1.1350   37.8790 C.3    42  GLU42       0.0429
     15  CG       -14.2740    2.3180   38.8540 C.3    42  GLU42       0.1163
     16  CD       -15.6550    2.5130   39.4610 C.2    42  GLU42       0.3649
     17  OE1      -16.6400    1.9790   38.9020 O.co2  42  GLU42      -0.2457
     18  OE2      -15.7510    3.2290   40.4960 O.co2  42  GLU42      -0.2457
     19  N        -11.4660   -0.9120   36.4030 N.am   43  GLY43      -0.1940
     20  CA       -11.1970   -2.1800   35.7400 C.3    43  GLY43       0.2014
     21  C        -10.4990   -3.0930   36.7270 C.2    43  GLY43       0.2639
     22  O        -10.1350   -2.6710   37.8150 O.2    43  GLY43      -0.2714
     23  N        -10.3180   -4.3420   36.3500 N.am   44  ILE44      -0.1963
     24  CA        -9.6620   -5.3020   37.2080 C.3    44  ILE44       0.1727
     25  C         -8.2640   -5.6330   36.6970 C.2    44  ILE44       0.2616
     26  O         -7.5070   -6.3880   37.3230 O.2    44  ILE44      -0.2715
     27  CB       -10.5200   -6.5760   37.3590 C.3    44  ILE44       0.0290
     28  CG1      -10.8590   -7.1810   35.9860 C.3    44  ILE44       0.0022
     29  CG2      -11.8340   -6.2210   38.0680 C.3    44  ILE44       0.0023
     30  CD1      -11.3590   -8.6490   36.0650 C.3    44  ILE44       0.0001
     31  N         -7.9250   -5.0350   35.5610 N.am   45  GLY45      -0.1955
     32  CA        -6.6220   -5.2160   34.9380 C.3    45  GLY45       0.1869
     33  C         -6.3770   -4.0730   33.9480 C.2    45  GLY45       0.2309
     34  O         -7.2920   -3.3010   33.6140 O.2    45  GLY45      -0.2863
     35  N         -2.6170    0.0930   26.4680 N.3    50  GLN50      -0.1245
     36  CA        -3.8530    0.8810   26.5920 C.3    50  GLN50       0.1566
     37  C         -3.5860    2.3200   26.9610 C.2    50  GLN50       0.2260
     38  O         -4.4120    3.2040   26.6830 O.2    50  GLN50      -0.2867
     39  CB        -4.7810    0.2650   27.6410 C.3    50  GLN50       0.0367
     40  CG        -5.2930   -1.1130   27.2920 C.3    50  GLN50       0.0905
     41  CD        -6.2550   -1.6450   28.3360 C.2    50  GLN50       0.2608
     42  OE1       -5.8410   -2.2050   29.3500 O.2    50  GLN50      -0.2717
     43  NE2       -7.5490   -1.4930   28.0830 N.am   50  GLN50      -0.0878
     44  N        -16.7290  -15.4730   29.4250 N.3    86  ILE86      -0.1231
     45  CA       -17.6700  -14.6560   30.1260 C.3    86  ILE86       0.1692
     46  C        -17.9410  -13.4910   29.2240 C.2    86  ILE86       0.2592
     47  O        -17.3320  -13.3760   28.1610 O.2    86  ILE86      -0.2718
     48  CB       -17.0950  -14.1300   31.4730 C.3    86  ILE86       0.0266
     49  CG1      -15.7990  -13.3530   31.2380 C.3    86  ILE86       0.0019
     50  CG2      -16.8550  -15.2760   32.4590 C.3    86  ILE86       0.0020
     51  CD1      -15.3200  -12.6280   32.4390 C.3    86  ILE86       0.0001
     52  N        -18.8610  -12.6270   29.6380 N.am   87  GLU87      -0.1966
     53  CA       -19.1780  -11.4390   28.8710 C.3    87  GLU87       0.1733
     54  C        -18.1470  -10.4370   29.2790 C.2    87  GLU87       0.2616
     55  O        -18.1710   -9.9410   30.3970 O.2    87  GLU87      -0.2715
     56  CB       -20.5770  -10.9080   29.2110 C.3    87  GLU87       0.0429
     57  CG       -21.7110  -11.8580   28.8510 C.3    87  GLU87       0.1163
     58  CD       -23.0500  -11.1370   28.6970 C.2    87  GLU87       0.3649
     59  OE1      -23.0390   -9.9240   28.3920 O.co2  87  GLU87      -0.2457
     60  OE2      -24.1120  -11.7850   28.8770 O.co2  87  GLU87      -0.2457
     61  N        -17.1980  -10.1780   28.3990 N.am   88  GLU88      -0.1963
     62  CA       -16.1150   -9.2810   28.7360 C.3    88  GLU88       0.1733
     63  C        -16.3490   -7.9030   28.2750 C.2    88  GLU88       0.2617
     64  O        -17.0400   -7.6760   27.3050 O.2    88  GLU88      -0.2715
     65  CB       -14.8040   -9.7700   28.1170 C.3    88  GLU88       0.0429
     66  CG       -14.3480  -11.1150   28.6010 C.3    88  GLU88       0.1163
     67  CD       -13.0590  -11.5300   27.9460 C.2    88  GLU88       0.3649
     68  OE1      -12.8490  -12.7400   27.7630 O.co2  88  GLU88      -0.2457
     69  OE2      -12.2530  -10.6330   27.5810 O.co2  88  GLU88      -0.2457
     70  N        -15.6990   -6.9750   28.9620 N.am   89  GLY89      -0.1940
     71  CA       -15.7080   -5.5780   28.5990 C.3    89  GLY89       0.2014
     72  C        -14.2230   -5.1260   28.5730 C.2    89  GLY89       0.2639
     73  O        -13.3600   -5.7580   29.1910 O.2    89  GLY89      -0.2714
     74  N        -13.9370   -4.0480   27.8530 N.am   90  CYS90      -0.1953
     75  CA       -12.5780   -3.5330   27.7650 C.3    90  CYS90       0.1843
     76  C        -12.5710   -2.0330   27.9250 C.2    90  CYS90       0.2625
     77  O        -13.4320   -1.3460   27.3870 O.2    90  CYS90      -0.2714
     78  CB       -11.9650   -3.8710   26.4100 C.3    90  CYS90       0.0997
     79  SG       -10.2390   -3.3370   26.2600 S.3    90  CYS90      -0.0797
     80  N        -11.5780   -1.5090   28.6290 N.am   91  LEU91      -0.1977
     81  CA       -11.4910   -0.0620   28.8170 C.3    91  LEU91       0.1596
     82  C        -11.3430    0.6830   27.4890 C.2    91  LEU91       0.2287
     83  O        -11.8050    1.8060   27.3510 O.2    91  LEU91      -0.2864
     84  CB       -10.3570    0.3100   29.7850 C.3    91  LEU91       0.0297
     85  CG       -10.5360   -0.1060   31.2630 C.3    91  LEU91       0.0022
     86  CD1       -9.4490    0.4740   32.1670 C.3    91  LEU91       0.0001
     87  CD2      -11.9060    0.2810   31.7760 C.3    91  LEU91       0.0001
     88  N        -19.9590   -5.1550   25.7870 N.3    97  ARG97      -0.1245
     89  CA       -19.6220   -6.4470   26.4170 C.3    97  ARG97       0.1563
     90  C        -19.9070   -7.6010   25.4770 C.2    97  ARG97       0.2260
     91  O        -20.7330   -7.4820   24.5690 O.2    97  ARG97      -0.2867
     92  CB       -20.3740   -6.6440   27.7350 C.3    97  ARG97       0.0307
     93  CG       -20.0130   -5.6320   28.8380 C.3    97  ARG97       0.0489
     94  CD       -19.5320   -6.3370   30.1280 C.3    97  ARG97       0.2205
     95  NE       -19.8330   -5.5650   31.3390 N.pl3  97  ARG97      -0.0865
     96  CZ       -19.9030   -4.2320   31.3920 C.cat  97  ARG97       0.5346
     97  NH1      -19.6830   -3.4970   30.3010 N.pl3  97  ARG97       0.1354
     98  NH2      -20.1900   -3.6270   32.5420 N.pl3  97  ARG97       0.1354
     99  N        -11.7760  -16.4230   36.5670 N.3   125  LEU125     -0.1245
    100  CA       -11.7150  -15.0540   36.1670 C.3   125  LEU125      0.1561
    101  C        -10.2900  -14.5690   35.9550 C.2   125  LEU125      0.2260
    102  O        -10.0130  -13.7790   35.0440 O.2   125  LEU125     -0.2867
    103  CB       -12.4470  -14.1800   37.2000 C.3   125  LEU125      0.0270
    104  CG       -12.5450  -12.7090   36.8310 C.3   125  LEU125      0.0019
    105  CD1      -13.0950  -12.5970   35.4180 C.3   125  LEU125      0.0001
    106  CD2      -13.4210  -11.9250   37.8180 C.3   125  LEU125      0.0001
    107  N         -8.9480  -15.7650   32.6180 N.3   128  ILE128     -0.1231
    108  CA        -9.5410  -14.9780   31.5420 C.3   128  ILE128      0.1692
    109  C         -8.9120  -13.6070   31.4620 C.2   128  ILE128      0.2592
    110  O         -8.6180  -13.0940   30.3850 O.2   128  ILE128     -0.2718
    111  CB       -11.0660  -14.8000   31.7510 C.3   128  ILE128      0.0266
    112  CG1      -11.8050  -16.1130   31.4390 C.3   128  ILE128      0.0019
    113  CG2      -11.6230  -13.6330   30.8670 C.3   128  ILE128      0.0020
    114  CD1      -13.2670  -16.0960   31.8320 C.3   128  ILE128      0.0001
    115  N         -8.7670  -12.9940   32.6190 N.am  129  CYS129     -0.1970
    116  CA        -8.2120  -11.6690   32.7280 C.3   129  CYS129      0.1712
    117  C         -6.7690  -11.6200   32.2050 C.2   129  CYS129      0.2296
    118  O         -6.3910  -10.7390   31.4460 O.2   129  CYS129     -0.2864
    119  CB        -8.2490  -11.2250   34.1830 C.3   129  CYS129      0.0983
    120  SG        -7.5910   -9.5630   34.3910 S.3   129  CYS129     -0.0798
    121  N         -6.9250  -11.7040   28.3620 N.3   132  HIS132     -0.1226
    122  CA        -7.4060  -10.4470   27.8270 C.3   132  HIS132      0.1752
    123  C         -6.2360   -9.4510   27.7910 C.2   132  HIS132      0.2598
    124  O         -6.0180   -8.7310   26.8010 O.2   132  HIS132     -0.2717
    125  CB        -8.5150   -9.9220   28.7740 C.3   132  HIS132      0.0759
    126  CG        -9.0380   -8.5590   28.4200 C.ar  132  HIS132      0.0818
    127  ND1      -10.3470   -8.3410   28.0370 N.ar  132  HIS132     -0.2268
    128  CD2       -8.4520   -7.3370   28.4700 C.ar  132  HIS132      0.1154
    129  CE1      -10.5300   -7.0500   27.8210 C.ar  132  HIS132      0.1986
    130  NE2       -9.3960   -6.4180   28.0800 N.ar  132  HIS132     -0.2212
    131  N         -5.4960   -9.4130   28.8930 N.am  133  GLU133     -0.1934
    132  CA        -4.3860   -8.4710   29.0580 C.3   133  GLU133      0.1818
    133  C         -3.2680   -8.7690   28.0710 C.2   133  GLU133      0.2332
    134  O         -2.8620   -7.9250   27.3180 O.2   133  GLU133     -0.2860
    135  CB        -3.8390   -8.5320   30.5030 C.2   133  GLU133      0.0097
    136  CG        -4.6110   -7.6980   31.6030 C.2   133  GLU133      0.0837
    137  CD        -5.7170   -6.7530   31.0840 C.2   133  GLU133      0.3877
    138  OE1       -5.4480   -5.8310   30.2810 O.co2 133  GLU133     -0.2406
    139  OE2       -6.8330   -6.8410   31.6160 O.co2 133  GLU133     -0.2406
    140  N         -3.7680   -7.6280   24.6400 N.3   136  HIS136     -0.1241
    141  CA        -3.5390   -6.1980   24.4280 C.3   136  HIS136      0.1621
    142  C         -2.0830   -5.9460   23.9900 C.2   136  HIS136      0.2264
    143  O         -1.8260   -5.1670   23.0780 O.2   136  HIS136     -0.2867
    144  CB        -3.8290   -5.4130   25.7230 C.3   136  HIS136      0.0745
    145  CG        -5.2600   -4.9700   25.8720 C.ar  136  HIS136      0.0817
    146  ND1       -5.9190   -4.2290   24.9150 N.ar  136  HIS136     -0.2268
    147  CD2       -6.1240   -5.0880   26.9080 C.ar  136  HIS136      0.1154
    148  CE1       -7.1330   -3.9320   25.3410 C.ar  136  HIS136      0.1986
    149  NE2       -7.2810   -4.4350   26.5500 N.ar  136  HIS136     -0.2212
@<TRIPOS>BOND
     1   143   142    2
     2   142   141    1
     3   141   140    1
     4   141   144    1
     5    91    90    2
     6   146   148   ar
     7   146   145   ar
     8   148   149   ar
     9    90    89    1
    10   144   145    1
    11    88    89    1
    12   145   147   ar
    13    79    78    1
    14    78    75    1
    15    89    92    1
    16    35    36    1
    17   149   147   ar
    18    36    37    1
    19    36    39    1
    20    38    37    2
    21   124   123    2
    22    40    39    1
    23    40    41    1
    24    64    63    2
    25   134   133    2
    26    83    82    2
    27    77    76    2
    28    82    81    1
    29    69    67   ar
    30    92    93    1
    31    68    67   ar
    32    75    74    1
    33    75    76    1
    34   123   122    1
    35   123   131   am
    36   129   127   ar
    37   129   130   ar
    38   122   121    1
    39   122   125    1
    40    74    72   am
    41    76    80   am
    42    67    66    1
    43   127   126   ar
    44   133   132    1
    45   130   128   ar
    46    43    41   am
    47    65    66    1
    48    65    62    1
    49    47    46    2
    50    63    62    1
    51    63    70   am
    52    41    42    2
    53    59    58   ar
    54    61    62    1
    55    61    54   am
    56   126   128   ar
    57   126   125    1
    58    72    71    1
    59    72    73    2
    60    71    70    1
    61    80    81    1
    62    58    57    1
    63    58    60   ar
    64    81    84    1
    65    93    94    1
    66    57    56    1
    67    53    56    1
    68    53    54    1
    69    53    52    1
    70   131   132    1
    71   132   135    1
    72    46    52   am
    73    46    45    1
    74    54    55    2
    75    44    45    1
    76    84    85    1
    77    45    48    1
    78    94    95    1
    79   138   137   ar
    80    97    96    1
    81   110   109    2
    82   135   136    2
    83   113   111    1
    84   137   136    1
    85   137   139   ar
    86    49    48    1
    87    49    51    1
    88    85    87    1
    89    85    86    1
    90    95    96    2
    91    96    98    1
    92   112   111    1
    93   112   114    1
    94   118   117    2
    95   109   108    1
    96   109   115   am
    97    48    50    1
    98   108   111    1
    99   108   107    1
   100   117   116    1
   101     9     7   ar
   102   115   116    1
   103   116   119    1
   104     8     7   ar
   105     7     6    1
   106    34    33    2
   107     6     5    1
   108    33    32    1
   109   119   120    1
   110     5     2    1
   111    32    31    1
   112   102   101    2
   113     4     3    2
   114   105   104    1
   115     2     3    1
   116     2     1    1
   117    31    25   am
   118    20    19    1
   119    20    21    1
   120     3    10   am
   121   101   100    1
   122    28    30    1
   123    28    27    1
   124   100    99    1
   125   100   103    1
   126    23    21   am
   127    23    24    1
   128    19    12   am
   129    25    24    1
   130    25    26    2
   131    21    22    2
   132    13    12    2
   133   104   103    1
   134   104   106    1
   135    12    11    1
   136    10    11    1
   137    24    27    1
   138    27    29    1
   139    11    14    1
   140    14    15    1
   141    15    16    1
   142    17    16   ar
   143    16    18   ar
