@<TRIPOS>MOLECULE
tmp/1g28B00.pdb
 191 178 0 0 0
SMALL
GASTEIGER

@<TRIPOS>ATOM
      1  N         30.9810   13.2620   29.4010 N.3     4  VAL4       -0.1245
      2  CA        30.4160   14.5510   29.0610 C.3     4  VAL4        0.1561
      3  C         28.9860   14.5750   29.5670 C.2     4  VAL4        0.2260
      4  O         28.3360   13.5230   29.6950 O.2     4  VAL4       -0.2867
      5  CB        30.4170   14.8000   27.5340 C.3     4  VAL4        0.0252
      6  CG1       31.8370   14.9500   27.0340 C.3     4  VAL4        0.0019
      7  CG2       29.7270   13.6610   26.8200 C.3     4  VAL4        0.0019
      8  N         25.4040   16.3320   28.7920 N.3     6  THR6       -0.1218
      9  CA        24.7090   17.0290   27.7400 C.3     6  THR6        0.1862
     10  C         23.3630   17.5000   28.2870 C.2     6  THR6        0.2287
     11  O         22.7620   16.8310   29.1330 O.2     6  THR6       -0.2866
     12  CB        24.5190   16.0900   26.5380 C.3     6  THR6        0.1770
     13  OG1       24.3050   16.8610   25.3570 O.3     6  THR6       -0.2211
     14  CG2       23.3360   15.1950   26.7480 C.3     6  THR6        0.0375
     15  N         20.7380   18.9480   21.8160 N.3    13  ASN13      -0.1240
     16  CA        21.3410   18.1920   22.9230 C.3    13  ASN13       0.1653
     17  C         22.8600   18.3810   23.0090 C.2    13  ASN13       0.2266
     18  O         23.6100   17.4140   22.9550 O.2    13  ASN13      -0.2867
     19  CB        21.0050   16.7170   22.6980 C.3    13  ASN13       0.1155
     20  CG        21.2030   15.8770   23.9090 C.2    13  ASN13       0.2627
     21  OD1       21.1880   14.6560   23.8220 O.2    13  ASN13      -0.2716
     22  ND2       21.3760   16.5110   25.0530 N.am   13  ASN13      -0.0877
     23  N         38.2570   13.3200   28.8190 N.3    22  PHE22      -0.1241
     24  CA        37.5890   13.3500   27.5220 C.3    22  PHE22       0.1605
     25  C         38.4120   14.1520   26.5160 C.2    22  PHE22       0.2264
     26  O         38.7010   13.6750   25.4230 O.2    22  PHE22      -0.2867
     27  CB        36.2110   13.9830   27.6450 C.3    22  PHE22       0.0534
     28  CG        35.4980   14.1310   26.3320 C.ar   22  PHE22      -0.0203
     29  CD1       34.7940   13.0620   25.7790 C.ar   22  PHE22      -0.0042
     30  CD2       35.5140   15.3420   25.6520 C.ar   22  PHE22      -0.0042
     31  CE1       34.1100   13.2020   24.5700 C.ar   22  PHE22      -0.0003
     32  CE2       34.8340   15.4920   24.4410 C.ar   22  PHE22      -0.0003
     33  CZ        34.1300   14.4210   23.9010 C.ar   22  PHE22      -0.0000
     34  N         26.8440   18.9680   19.5750 N.3    37  ASN37      -0.1225
     35  CA        26.3630   17.6060   19.7760 C.3    37  ASN37       0.1785
     36  C         27.5680   16.6610   19.6030 C.2    37  ASN37       0.2597
     37  O         28.4880   16.9400   18.8220 O.2    37  ASN37      -0.2718
     38  CB        25.2680   17.2940   18.7600 C.3    37  ASN37       0.1169
     39  CG        24.6970   15.9210   18.9270 C.2    37  ASN37       0.2627
     40  OD1       25.3720   14.9300   18.6810 O.2    37  ASN37      -0.2716
     41  ND2       23.4430   15.8480   19.3450 N.am   37  ASN37      -0.0877
     42  N         27.5700   15.5540   20.3450 N.am   38  CYS38      -0.1956
     43  CA        28.6720   14.5950   20.3030 C.3    38  CYS38       0.1843
     44  C         28.8760   13.8180   19.0120 C.2    38  CYS38       0.2625
     45  O         29.8940   13.1410   18.8690 O.2    38  CYS38      -0.2714
     46  CB        28.5380   13.5800   21.4300 C.3    38  CYS38       0.0997
     47  SG        28.9380   14.1940   23.0470 S.3    38  CYS38      -0.0797
     48  N         27.9370   13.8910   18.0760 N.am   39  ARG39      -0.1977
     49  CA        28.1040   13.1410   16.8440 C.3    39  ARG39       0.1597
     50  C         29.3850   13.4680   16.0670 C.2    39  ARG39       0.2287
     51  O         29.7780   12.7080   15.1860 O.2    39  ARG39      -0.2864
     52  CB        26.8840   13.3160   15.9380 C.3    39  ARG39       0.0334
     53  CG        26.7220   14.6910   15.3170 C.3    39  ARG39       0.0492
     54  CD        25.5510   14.7080   14.3370 C.3    39  ARG39       0.2205
     55  NE        24.2410   14.6770   14.9830 N.pl3  39  ARG39      -0.0865
     56  CZ        23.6310   15.7510   15.4680 C.cat  39  ARG39       0.5346
     57  NH1       24.2160   16.9360   15.3810 N.pl3  39  ARG39       0.1354
     58  NH2       22.4320   15.6470   16.0270 N.pl3  39  ARG39       0.1354
     59  N         32.1780   12.9150   16.7290 N.3    41  LEU41      -0.1231
     60  CA        33.1960   11.9070   16.9850 C.3    41  LEU41       0.1693
     61  C         33.0460   10.7330   16.0320 C.2    41  LEU41       0.2591
     62  O         33.8640    9.8110   16.0520 O.2    41  LEU41      -0.2718
     63  CB        33.1200   11.3890   18.4310 C.3    41  LEU41       0.0284
     64  CG        33.5540   12.2750   19.5960 C.3    41  LEU41       0.0019
     65  CD1       33.3860   11.4820   20.8710 C.3    41  LEU41       0.0001
     66  CD2       35.0010   12.7240   19.4320 C.3    41  LEU41       0.0001
     67  N         32.0080   10.7570   15.2000 N.am   42  GLN42      -0.1979
     68  CA        31.7840    9.6650   14.2580 C.3    42  GLN42       0.1601
     69  C         32.4870    9.9040   12.9380 C.2    42  GLN42       0.2287
     70  O         32.6940   11.0480   12.5350 O.2    42  GLN42      -0.2864
     71  CB        30.2950    9.4740   14.0510 C.3    42  GLN42       0.0394
     72  CG        29.6140    9.2180   15.3560 C.3    42  GLN42       0.0908
     73  CD        28.1320    9.3120   15.2500 C.2    42  GLN42       0.2608
     74  OE1       27.6190   10.2370   14.6420 O.2    42  GLN42      -0.2717
     75  NE2       27.4230    8.3660   15.8490 N.am   42  GLN42      -0.0878
     76  N         24.9540    3.5140   15.6810 N.3    51  VAL51      -0.1245
     77  CA        24.4800    4.8610   15.9300 C.3    51  VAL51       0.1561
     78  C         22.9460    4.9020   15.9880 C.2    51  VAL51       0.2260
     79  O         22.3670    5.8290   16.5610 O.2    51  VAL51      -0.2867
     80  CB        25.0110    5.8150   14.8410 C.3    51  VAL51       0.0252
     81  CG1       24.6020    7.2400   15.1440 C.3    51  VAL51       0.0019
     82  CG2       26.5240    5.7040   14.7550 C.3    51  VAL51       0.0019
     83  N         22.1900    4.0890   19.7740 N.3    54  ILE54      -0.1231
     84  CA        22.4430    5.2900   20.5510 C.3    54  ILE54       0.1692
     85  C         21.3460    6.3150   20.2800 C.2    54  ILE54       0.2591
     86  O         20.9390    7.0410   21.1830 O.2    54  ILE54      -0.2718
     87  CB        23.8110    5.9140   20.2090 C.3    54  ILE54       0.0266
     88  CG1       24.9320    4.9270   20.5380 C.3    54  ILE54       0.0019
     89  CG2       24.0010    7.1960   20.9940 C.3    54  ILE54       0.0020
     90  CD1       26.3190    5.4760   20.3000 C.3    54  ILE54       0.0001
     91  N         20.8640    6.3660   19.0400 N.am   55  ARG55      -0.1980
     92  CA        19.8050    7.3070   18.6950 C.3    55  ARG55       0.1597
     93  C         18.4830    6.8970   19.3520 C.2    55  ARG55       0.2287
     94  O         17.7390    7.7360   19.8690 O.2    55  ARG55      -0.2864
     95  CB        19.6170    7.3960   17.1750 C.3    55  ARG55       0.0334
     96  CG        18.6580    8.5130   16.7830 C.3    55  ARG55       0.0492
     97  CD        18.4300    8.6510   15.2830 C.3    55  ARG55       0.2205
     98  NE        19.6510    8.9620   14.5520 N.pl3  55  ARG55      -0.0865
     99  CZ        20.3810    8.0600   13.9050 C.cat  55  ARG55       0.5346
    100  NH1       20.0050    6.7860   13.8980 N.pl3  55  ARG55       0.1354
    101  NH2       21.4890    8.4290   13.2700 N.pl3  55  ARG55       0.1354
    102  N         18.6360    7.6910   23.2410 N.3    58  VAL58      -0.1231
    103  CA        18.4420    9.0980   23.5370 C.3    58  VAL58       0.1692
    104  C         16.9750    9.4860   23.4140 C.2    58  VAL58       0.2591
    105  O         16.4420   10.1850   24.2730 O.2    58  VAL58      -0.2718
    106  CB        19.3110    9.9880   22.6160 C.3    58  VAL58       0.0266
    107  CG1       19.0480   11.4560   22.9010 C.3    58  VAL58       0.0020
    108  CG2       20.7800    9.6850   22.8540 C.3    58  VAL58       0.0020
    109  N         16.3180    9.0220   22.3530 N.am   59  LYS59      -0.1980
    110  CA        14.9020    9.3300   22.1360 C.3    59  LYS59       0.1596
    111  C         14.0230    8.5730   23.1350 C.2    59  LYS59       0.2287
    112  O         13.2330    9.1740   23.8530 O.2    59  LYS59      -0.2864
    113  CB        14.4990    8.9860   20.7070 C.3    59  LYS59       0.0298
    114  CG        15.2540    9.7460   19.6390 C.3    59  LYS59       0.0038
    115  CD        15.0410   11.2390   19.7890 C.3    59  LYS59       0.0206
    116  CE        15.4570   11.9780   18.5290 C.3    59  LYS59       0.1093
    117  NZ        16.8290   11.5620   18.1280 N.3    59  LYS59      -0.1314
    118  N         31.1900    1.4350   19.7720 N.3    68  VAL68      -0.1245
    119  CA        31.1340    2.1260   18.4990 C.3    68  VAL68       0.1561
    120  C         32.5110    2.6660   18.1600 C.2    68  VAL68       0.2260
    121  O         33.3070    2.9330   19.0590 O.2    68  VAL68      -0.2867
    122  CB        30.0880    3.2760   18.5660 C.3    68  VAL68       0.0252
    123  CG1       30.6390    4.4610   19.3460 C.3    68  VAL68       0.0019
    124  CG2       29.6720    3.6830   17.1720 C.3    68  VAL68       0.0019
    125  N         34.9750    5.5340   16.9830 N.3    70  ASN70      -0.1240
    126  CA        35.0500    6.9840   16.8520 C.3    70  ASN70       0.1653
    127  C         36.4220    7.4330   16.3700 C.2    70  ASN70       0.2266
    128  O         37.3120    6.6100   16.1590 O.2    70  ASN70      -0.2867
    129  CB        34.7190    7.6730   18.1790 C.3    70  ASN70       0.1155
    130  CG        33.2370    7.5700   18.5410 C.2    70  ASN70       0.2627
    131  OD1       32.8590    7.7140   19.7040 O.2    70  ASN70      -0.2716
    132  ND2       32.3980    7.2970   17.5440 N.am   70  ASN70      -0.0877
    133  N         35.3070    2.7170   21.0600 N.3    80  ASN80      -0.1240
    134  CA        34.7390    3.3790   22.2050 C.3    80  ASN80       0.1653
    135  C         33.6150    2.5690   22.7980 C.2    80  ASN80       0.2266
    136  O         32.5700    2.4010   22.1800 O.2    80  ASN80      -0.2867
    137  CB        34.2450    4.7690   21.7960 C.3    80  ASN80       0.1155
    138  CG        33.5120    5.4910   22.9090 C.2    80  ASN80       0.2627
    139  OD1       33.4600    5.0270   24.0460 O.2    80  ASN80      -0.2716
    140  ND2       32.9420    6.6420   22.5830 N.am   80  ASN80      -0.0877
    141  N         31.0000    2.8140   24.6260 N.3    82  PHE82      -0.1241
    142  CA        30.1570    3.9170   25.0490 C.3    82  PHE82       0.1605
    143  C         29.0090    3.5360   25.9910 C.2    82  PHE82       0.2264
    144  O         28.2320    2.6150   25.7170 O.2    82  PHE82      -0.2867
    145  CB        29.6120    4.6080   23.8000 C.3    82  PHE82       0.0534
    146  CG        28.6520    5.6960   24.0930 C.ar   82  PHE82      -0.0203
    147  CD1       29.0880    6.8760   24.6680 C.ar   82  PHE82      -0.0042
    148  CD2       27.2920    5.5240   23.8350 C.ar   82  PHE82      -0.0042
    149  CE1       28.1860    7.8710   24.9870 C.ar   82  PHE82      -0.0003
    150  CE2       26.3760    6.5170   24.1520 C.ar   82  PHE82      -0.0003
    151  CZ        26.8220    7.6900   24.7280 C.ar   82  PHE82      -0.0000
    152  N         25.7310    5.1820   28.0690 N.3    84  LEU84      -0.1245
    153  CA        24.8090    6.3080   28.2340 C.3    84  LEU84       0.1561
    154  C         23.9630    6.2170   29.4970 C.2    84  LEU84       0.2260
    155  O         23.2220    5.2520   29.6950 O.2    84  LEU84      -0.2867
    156  CB        23.8660    6.4060   27.0350 C.3    84  LEU84       0.0270
    157  CG        22.8460    7.5420   27.0960 C.3    84  LEU84       0.0019
    158  CD1       23.5650    8.8840   26.9540 C.3    84  LEU84       0.0001
    159  CD2       21.8210    7.3620   26.0020 C.3    84  LEU84       0.0001
    160  N         21.9700   14.0920   30.3240 N.3    97  PHE97      -0.1227
    161  CA        22.4340   12.8380   29.7470 C.3    97  PHE97       0.1736
    162  C         23.9100   12.7890   30.0980 C.2    97  PHE97       0.2595
    163  O         24.6380   13.7880   29.9620 O.2    97  PHE97      -0.2718
    164  CB        22.2610   12.8060   28.2230 C.3    97  PHE97       0.0547
    165  CG        20.9230   12.2860   27.7600 C.ar   97  PHE97      -0.0202
    166  CD1       20.5450   10.9750   28.0240 C.ar   97  PHE97      -0.0042
    167  CD2       20.0530   13.1040   27.0450 C.ar   97  PHE97      -0.0042
    168  CE1       19.3180   10.4800   27.5810 C.ar   97  PHE97      -0.0003
    169  CE2       18.8290   12.6230   26.6010 C.ar   97  PHE97      -0.0003
    170  CZ        18.4580   11.3060   26.8680 C.ar   97  PHE97      -0.0000
    171  N         24.3370   11.6310   30.5760 N.am   98  ILE98      -0.1966
    172  CA        25.7120   11.4360   30.9620 C.3    98  ILE98       0.1727
    173  C         26.3210   10.4100   30.0390 C.2    98  ILE98       0.2616
    174  O         25.8480    9.2760   29.9510 O.2    98  ILE98      -0.2715
    175  CB        25.7860   10.9700   32.4180 C.3    98  ILE98       0.0290
    176  CG1       25.2140   12.0690   33.3100 C.3    98  ILE98       0.0022
    177  CG2       27.2220   10.6710   32.8070 C.3    98  ILE98       0.0023
    178  CD1       25.2530   11.7530   34.7830 C.3    98  ILE98       0.0001
    179  N         27.3630   10.8150   29.3340 N.am   99  GLY99      -0.1955
    180  CA        27.9920    9.8890   28.4200 C.3    99  GLY99       0.1869
    181  C         29.3980    9.5810   28.8630 C.2    99  GLY99       0.2309
    182  O         30.2010   10.4970   29.0820 O.2    99  GLY99      -0.2863
    183  N         32.9210    7.5480   27.9650 N.3   101  GLN101     -0.1245
    184  CA        33.7020    6.9050   26.9170 C.3   101  GLN101      0.1566
    185  C         34.9240    6.1460   27.4460 C.2   101  GLN101      0.2260
    186  O         35.7050    6.6640   28.2550 O.2   101  GLN101     -0.2867
    187  CB        34.1710    7.9320   25.8900 C.3   101  GLN101      0.0367
    188  CG        33.0660    8.7200   25.2180 C.3   101  GLN101      0.0905
    189  CD        32.5870    9.8650   26.0710 C.2   101  GLN101      0.2608
    190  OE1       33.3710   10.4900   26.7830 O.2   101  GLN101     -0.2717
    191  NE2       31.3010   10.1610   25.9930 N.am  101  GLN101     -0.0878
@<TRIPOS>BOND
     1    70    69    2
     2    69    68    1
     3   101    99    1
     4   100    99    1
     5    99    98    2
     6    71    68    1
     7    71    72    1
     8    68    67    1
     9    54    55    1
    10    54    53    1
    11    98    97    1
    12    74    73    2
    13    82    80    1
    14    80    81    1
    15    80    77    1
    16    55    56    2
    17    51    50    2
    18    67    61   am
    19    73    72    1
    20    73    75   am
    21    97    96    1
    22    53    52    1
    23    57    56    1
    24    56    58    1
    25    76    77    1
    26    77    78    1
    27    52    49    1
    28    78    79    2
    29    61    62    2
    30    61    60    1
    31    50    49    1
    32   128   127    2
    33   127   126    1
    34    59    60    1
    35    96    95    1
    36    49    48    1
    37   126   125    1
    38   126   129    1
    39    60    63    1
    40   124   122    1
    41    95    92    1
    42   132   130   am
    43    48    44   am
    44   117   116    1
    45   120   119    1
    46   120   121    2
    47   129   130    1
    48    63    64    1
    49   119   122    1
    50   119   118    1
    51   116   115    1
    52   130   131    2
    53   122   123    1
    54    40    39    2
    55    92    91    1
    56    92    93    1
    57    38    39    1
    58    38    35    1
    59    37    36    2
    60    45    44    2
    61    39    41   am
    62    44    43    1
    63    91    85   am
    64    93    94    2
    65    66    64    1
    66    34    35    1
    67    64    65    1
    68    36    35    1
    69    36    42   am
    70   114   115    1
    71   114   113    1
    72    83    84    1
    73    87    88    1
    74    87    84    1
    75    87    89    1
    76    85    84    1
    77    85    86    2
    78    90    88    1
    79    43    42    1
    80    43    46    1
    81   113   110    1
    82   133   134    1
    83    46    47    1
    84   137   134    1
    85   137   138    1
    86    15    16    1
    87   110   109    1
    88   110   111    1
    89   136   135    2
    90   134   135    1
    91   109   104   am
    92   140   138   am
    93   106   108    1
    94   106   107    1
    95   106   103    1
    96    19    16    1
    97    19    20    1
    98   138   139    2
    99    16    17    1
   100    18    17    2
   101   111   112    2
   102   102   103    1
   103   104   103    1
   104   104   105    2
   105   145   146    1
   106   145   142    1
   107    21    20    2
   108   148   146   ar
   109   148   150   ar
   110    33    32   ar
   111    33    31   ar
   112    20    22   am
   113   146   147   ar
   114   150   151   ar
   115    32    30   ar
   116    31    29   ar
   117   141   142    1
   118   147   149   ar
   119   151   149   ar
   120   142   143    1
   121   188   187    1
   122   188   189    1
   123    13    12    1
   124    26    25    2
   125    30    28   ar
   126   144   143    2
   127    29    28   ar
   128   187   184    1
   129   191   189   am
   130   159   157    1
   131   189   190    2
   132    28    27    1
   133    25    24    1
   134    12    14    1
   135    12     9    1
   136   169   170   ar
   137   169   167   ar
   138     7     5    1
   139   170   168   ar
   140   184   185    1
   141   184   183    1
   142   158   157    1
   143     6     5    1
   144   156   157    1
   145   156   153    1
   146   167   165   ar
   147   185   186    2
   148    24    27    1
   149    24    23    1
   150     5     2    1
   151   168   166   ar
   152     9    10    1
   153     9     8    1
   154   165   166   ar
   155   165   164    1
   156   152   153    1
   157   164   161    1
   158   153   154    1
   159    10    11    2
   160   180   181    1
   161   180   179    1
   162   181   182    2
   163     2     1    1
   164     2     3    1
   165   179   173   am
   166   154   155    2
   167     3     4    2
   168   161   162    1
   169   161   160    1
   170   174   173    2
   171   163   162    2
   172   173   172    1
   173   162   171   am
   174   171   172    1
   175   172   175    1
   176   175   177    1
   177   175   176    1
   178   176   178    1
