@<TRIPOS>MOLECULE
tmp/1g2aB00.pdb
 129 124 0 0 0
SMALL
GASTEIGER

@<TRIPOS>ATOM
      1  N         16.7750   -4.7590   16.5120 N.3    42  GLU42      -0.1231
      2  CA        15.3830   -5.0430   16.8490 C.3    42  GLU42       0.1699
      3  C         14.6230   -5.9170   15.8630 C.2    42  GLU42       0.2593
      4  O         13.3950   -5.7730   15.7380 O.2    42  GLU42      -0.2718
      5  CB        14.6560   -3.7160   17.0480 C.3    42  GLU42       0.0402
      6  CG        15.2800   -2.9740   18.2390 C.3    42  GLU42       0.1161
      7  CD        14.6490   -1.6060   18.4160 C.2    42  GLU42       0.3649
      8  OE1       15.2480   -0.6070   17.9690 O.co2  42  GLU42      -0.2457
      9  OE2       13.5500   -1.5280   19.0010 O.co2  42  GLU42      -0.2457
     10  N         15.2800   -6.9320   15.3510 N.am   43  GLY43      -0.1942
     11  CA        14.6250   -7.8620   14.4270 C.3    43  GLY43       0.2014
     12  C         14.2520   -9.1510   15.1090 C.2    43  GLY43       0.2639
     13  O         14.6160   -9.4670   16.2490 O.2    43  GLY43      -0.2714
     14  N         13.3960   -9.9470   14.4330 N.am   44  ILE44      -0.1963
     15  CA        13.0080  -11.2390   14.9140 C.3    44  ILE44       0.1727
     16  C         13.6510  -12.4090   14.2020 C.2    44  ILE44       0.2616
     17  O         13.4350  -13.5880   14.4730 O.2    44  ILE44      -0.2715
     18  CB        11.4440  -11.3850   14.8850 C.3    44  ILE44       0.0290
     19  CG1       10.9480  -11.1450   13.4560 C.3    44  ILE44       0.0022
     20  CG2       10.8410  -10.3840   15.8510 C.3    44  ILE44       0.0023
     21  CD1        9.4810  -11.6050   13.3310 C.3    44  ILE44       0.0001
     22  N         14.5230  -12.0550   13.2150 N.am   45  GLY45      -0.1955
     23  CA        15.2770  -13.0780   12.4960 C.3    45  GLY45       0.1869
     24  C         16.4580  -12.3880   11.7700 C.2    45  GLY45       0.2309
     25  O         16.4610  -11.1860   11.6290 O.2    45  GLY45      -0.2863
     26  N         22.7330  -11.6270    4.9760 N.3    50  GLN50      -0.1245
     27  CA        22.5470  -10.2540    5.2760 C.3    50  GLN50       0.1566
     28  C         23.7820   -9.6000    5.9680 C.2    50  GLN50       0.2260
     29  O         23.8580   -8.3830    5.8970 O.2    50  GLN50      -0.2867
     30  CB        21.3710  -10.0330    6.2700 C.3    50  GLN50       0.0367
     31  CG        20.0560  -10.4120    5.5420 C.3    50  GLN50       0.0905
     32  CD        18.9270  -10.2710    6.5840 C.2    50  GLN50       0.2608
     33  OE1       18.6410  -11.2630    7.2540 O.2    50  GLN50      -0.2717
     34  NE2       18.3650   -9.0770    6.6530 N.am   50  GLN50      -0.0878
     35  N          1.3510  -11.1530    6.4330 N.3    86  ILE86      -0.1231
     36  CA         1.3320  -10.0200    7.3450 C.3    86  ILE86       0.1692
     37  C          2.2020   -8.9330    6.7480 C.2    86  ILE86       0.2592
     38  O          2.9290   -9.2330    5.7730 O.2    86  ILE86      -0.2718
     39  CB         1.8120  -10.4120    8.7510 C.3    86  ILE86       0.0266
     40  CG1        3.2620  -10.9420    8.6580 C.3    86  ILE86       0.0019
     41  CG2        0.9650  -11.5020    9.3780 C.3    86  ILE86       0.0020
     42  CD1        3.8230  -11.1700   10.0660 C.3    86  ILE86       0.0001
     43  N          2.1730   -7.7090    7.2680 N.am   87  GLU87      -0.1966
     44  CA         3.0650   -6.6920    6.7160 C.3    87  GLU87       0.1733
     45  C          4.4720   -7.0100    7.2670 C.2    87  GLU87       0.2619
     46  O          4.6750   -6.8500    8.4690 O.2    87  GLU87      -0.2715
     47  CB         2.6330   -5.2750    7.0480 C.3    87  GLU87       0.0429
     48  CG         1.3100   -4.9660    6.3220 C.3    87  GLU87       0.1163
     49  CD         0.7270   -3.6080    6.6090 C.2    87  GLU87       0.3649
     50  OE1        1.4260   -2.7250    7.1480 O.co2  87  GLU87      -0.2457
     51  OE2       -0.4750   -3.4050    6.2960 O.co2  87  GLU87      -0.2457
     52  N          5.3790   -7.3020    6.3440 N.am   88  GLU88      -0.1918
     53  CA         6.7600   -7.5990    6.7750 C.3    88  GLU88       0.1949
     54  C          7.6630   -6.4110    6.4910 C.2    88  GLU88       0.2659
     55  O          7.5350   -5.7340    5.4840 O.2    88  GLU88      -0.2711
     56  CB         7.3270   -8.7860    5.9940 C.2    88  GLU88       0.0111
     57  CG         6.6800  -10.1180    6.1610 C.2    88  GLU88       0.0838
     58  CD         7.1520  -11.3100    5.3960 C.2    88  GLU88       0.3877
     59  OE1        6.3890  -12.2840    5.1790 O.co2  88  GLU88      -0.2406
     60  OE2        8.3430  -11.3170    4.9780 O.co2  88  GLU88      -0.2406
     61  N          8.6980   -6.3180    7.3450 N.am   89  GLY89      -0.1937
     62  CA         9.7870   -5.3680    7.1510 C.3    89  GLY89       0.2014
     63  C         11.0620   -6.2570    7.1600 C.2    89  GLY89       0.2639
     64  O         11.0400   -7.4610    7.3540 O.2    89  GLY89      -0.2714
     65  N         12.1730   -5.6220    6.7890 N.am   90  CYS90      -0.1953
     66  CA        13.4330   -6.3680    6.6780 C.3    90  CYS90       0.1843
     67  C         14.5540   -5.3930    7.0180 C.2    90  CYS90       0.2625
     68  O         14.4620   -4.2610    6.5990 O.2    90  CYS90      -0.2714
     69  CB        13.5870   -6.8260    5.2360 C.3    90  CYS90       0.0997
     70  SG        15.1300   -7.6820    4.8420 S.3    90  CYS90      -0.0797
     71  N         15.5590   -5.9080    7.7440 N.am   91  LEU91      -0.1977
     72  CA        16.6550   -5.0290    8.1470 C.3    91  LEU91       0.1596
     73  C         17.4700   -4.5950    6.9350 C.2    91  LEU91       0.2287
     74  O         18.1450   -3.5760    7.0530 O.2    91  LEU91      -0.2864
     75  CB        17.5180   -5.7450    9.1990 C.3    91  LEU91       0.0297
     76  CG        16.7380   -6.0460   10.4960 C.3    91  LEU91       0.0022
     77  CD1       17.5890   -6.9020   11.4350 C.3    91  LEU91       0.0001
     78  CD2       16.2990   -4.7450   11.1440 C.3    91  LEU91       0.0001
     79  N          3.3730  -16.5960   13.2280 N.3   125  LEU125     -0.1245
     80  CA         4.5040  -15.7080   12.9700 C.3   125  LEU125      0.1561
     81  C          5.7990  -16.5060   12.7290 C.2   125  LEU125      0.2260
     82  O          6.5720  -16.1080   11.8410 O.2   125  LEU125     -0.2867
     83  CB         4.6950  -14.8110   14.1970 C.3   125  LEU125      0.0270
     84  CG         5.8330  -13.7840   14.0930 C.3   125  LEU125      0.0019
     85  CD1        5.7790  -12.9110   12.8610 C.3   125  LEU125      0.0001
     86  CD2        5.8930  -12.9790   15.3800 C.3   125  LEU125      0.0001
     87  N          6.0870  -17.7110    9.1340 N.3   128  ILE128     -0.1231
     88  CA         6.3390  -16.6020    8.2360 C.3   128  ILE128      0.1692
     89  C          7.8220  -16.1770    8.3040 C.2   128  ILE128      0.2592
     90  O          8.5000  -16.0650    7.2730 O.2   128  ILE128     -0.2718
     91  CB         5.3920  -15.4320    8.5880 C.3   128  ILE128      0.0266
     92  CG1        3.9470  -15.8960    8.2500 C.3   128  ILE128      0.0019
     93  CG2        5.7050  -14.1390    7.8700 C.3   128  ILE128      0.0020
     94  CD1        2.8590  -14.9630    8.7780 C.3   128  ILE128      0.0001
     95  N          8.2620  -16.0000    9.5460 N.am  129  CYS129     -0.1970
     96  CA         9.6860  -15.6020    9.7540 C.3   129  CYS129      0.1712
     97  C         10.6170  -16.6480    9.1650 C.2   129  CYS129      0.2296
     98  O         11.5940  -16.2570    8.4480 O.2   129  CYS129     -0.2864
     99  CB         9.8940  -15.3990   11.2550 C.3   129  CYS129      0.0983
    100  SG        11.6460  -14.9610   11.6180 S.3   129  CYS129     -0.0798
    101  N         10.8220  -16.0350    5.4380 N.3   132  HIS132     -0.1226
    102  CA        11.4800  -14.7810    5.1300 C.3   132  HIS132      0.1752
    103  C         13.0250  -15.0330    5.2040 C.2   132  HIS132      0.2595
    104  O         13.7530  -14.7020    4.2860 O.2   132  HIS132     -0.2718
    105  CB        11.1560  -13.7560    6.1710 C.3   132  HIS132      0.0759
    106  CG        11.7310  -12.3910    6.0550 C.ar  132  HIS132      0.0818
    107  ND1       10.9130  -11.3170    5.7530 N.ar  132  HIS132     -0.2268
    108  CD2       13.0000  -11.8590    6.1810 C.ar  132  HIS132      0.1154
    109  CE1       11.6100  -10.1920    5.7270 C.ar  132  HIS132      0.1986
    110  NE2       12.8660  -10.5190    5.9860 N.ar  132  HIS132     -0.2212
    111  N         13.3760  -15.7360    6.2740 N.am  133  GLU133     -0.1979
    112  CA        14.8450  -16.0060    6.4230 C.3   133  GLU133      0.1602
    113  C         15.3830  -16.9570    5.3840 C.2   133  GLU133      0.2287
    114  O         16.4970  -16.8040    4.8250 O.2   133  GLU133     -0.2864
    115  CB        15.1340  -16.4710    7.8520 C.3   133  GLU133      0.0415
    116  CG        14.6520  -15.5080    8.9180 C.3   133  GLU133      0.1163
    117  CD        15.0840  -14.0710    8.8210 C.2   133  GLU133      0.3649
    118  OE1       16.0720  -13.7300    8.0950 O.co2 133  GLU133     -0.2457
    119  OE2       14.4840  -13.1690    9.4540 O.co2 133  GLU133     -0.2457
    120  N         16.1380  -15.3050    2.1920 N.3   136  HIS136     -0.1241
    121  CA        17.4230  -14.5770    2.1120 C.3   136  HIS136      0.1621
    122  C         18.5580  -15.5020    1.6940 C.2   136  HIS136      0.2264
    123  O         19.4460  -15.0710    0.9240 O.2   136  HIS136     -0.2867
    124  CB        17.8700  -13.9570    3.4420 C.3   136  HIS136      0.0745
    125  CG        17.2310  -12.6390    3.7660 C.ar  136  HIS136      0.0817
    126  ND1       17.3310  -11.5040    3.0530 N.ar  136  HIS136     -0.2268
    127  CD2       16.4530  -12.3250    4.8440 C.ar  136  HIS136      0.1154
    128  CE1       16.6790  -10.5130    3.6120 C.ar  136  HIS136      0.1986
    129  NE2       16.1290  -10.9910    4.7130 N.ar  136  HIS136     -0.2212
@<TRIPOS>BOND
     1   123   122    2
     2   122   121    1
     3   121   120    1
     4   121   124    1
     5   126   128   ar
     6   126   125   ar
     7   124   125    1
     8   128   129   ar
     9   125   127   ar
    10   104   103    2
    11   129   127   ar
    12   114   113    2
    13    70    69    1
    14    26    27    1
    15    60    58   ar
    16   102   103    1
    17   102   101    1
    18   102   105    1
    19    59    58   ar
    20   103   111   am
    21    69    66    1
    22    27    28    1
    23    27    30    1
    24   113   112    1
    25    58    57    1
    26    55    54    2
    27    31    30    1
    28    31    32    1
    29   109   107   ar
    30   109   110   ar
    31   107   106   ar
    32    38    37    2
    33    29    28    2
    34   110   108   ar
    35    56    57    2
    36    56    53    1
    37   106   105    1
    38   106   108   ar
    39   111   112    1
    40    51    49   ar
    41    48    49    1
    42    48    47    1
    43    52    53    1
    44    52    45   am
    45   112   115    1
    46    35    36    1
    47    54    53    1
    48    54    61   am
    49    32    34   am
    50    32    33    2
    51    68    67    2
    52    49    50   ar
    53    66    65    1
    54    66    67    1
    55    44    47    1
    56    44    45    1
    57    44    43    1
    58    37    43   am
    59    37    36    1
    60    65    63   am
    61    73    74    2
    62    73    72    1
    63    67    71   am
    64    62    63    1
    65    62    61    1
    66    63    64    2
    67    45    46    2
    68    90    89    2
    69    36    39    1
    70    71    72    1
    71   115   116    1
    72    93    91    1
    73   118   117   ar
    74    72    75    1
    75    88    89    1
    76    88    91    1
    77    88    87    1
    78    92    91    1
    79    92    94    1
    80    89    95   am
    81    98    97    2
    82    40    39    1
    83    40    42    1
    84    39    41    1
    85   117   116    1
    86   117   119   ar
    87    97    96    1
    88    75    76    1
    89    95    96    1
    90    96    99    1
    91    76    78    1
    92    76    77    1
    93    99   100    1
    94    25    24    2
    95    24    23    1
    96    82    81    2
    97    23    22    1
    98    81    80    1
    99    85    84    1
   100    80    79    1
   101    80    83    1
   102    22    16   am
   103    21    19    1
   104    19    18    1
   105    84    83    1
   106    84    86    1
   107    16    17    2
   108    16    15    1
   109    11    12    1
   110    11    10    1
   111    14    15    1
   112    14    12   am
   113    18    15    1
   114    18    20    1
   115    12    13    2
   116    10     3   am
   117     4     3    2
   118     3     2    1
   119     1     2    1
   120     2     5    1
   121     5     6    1
   122     8     7   ar
   123     6     7    1
   124     7     9   ar
