@<TRIPOS>MOLECULE
tmp/1g2kB00.pdb
 105 98 0 0 0
SMALL
GASTEIGER

@<TRIPOS>ATOM
      1  N          9.2110   34.8990   -1.6200 N.3     8  ARG8       -0.1245
      2  CA         9.9020   33.6150   -1.7400 C.3     8  ARG8        0.1563
      3  C         10.8410   33.6090   -2.9340 C.2     8  ARG8        0.2260
      4  O         10.4980   34.1050   -4.0100 O.2     8  ARG8       -0.2867
      5  CB         8.9020   32.4700   -1.8820 C.3     8  ARG8        0.0307
      6  CG         8.1190   32.1940   -0.6230 C.3     8  ARG8        0.0489
      7  CD         7.2630   30.9530   -0.7550 C.3     8  ARG8        0.2205
      8  NE         6.5680   30.6740    0.4940 N.pl3   8  ARG8       -0.0865
      9  CZ         5.6960   29.6890    0.6630 C.cat   8  ARG8        0.5346
     10  NH1        5.4050   28.8760   -0.3440 N.pl3   8  ARG8        0.1354
     11  NH2        5.1070   29.5290    1.8400 N.pl3   8  ARG8        0.1354
     12  N         12.1950   26.4440   -5.2460 N.3    23  LEU23      -0.1245
     13  CA        12.6360   27.3820   -4.2250 C.3    23  LEU23       0.1561
     14  C         14.1400   27.3000   -3.9470 C.2    23  LEU23       0.2260
     15  O         14.6630   26.2120   -3.7010 O.2    23  LEU23      -0.2867
     16  CB        11.8540   27.0700   -2.9520 C.3    23  LEU23       0.0270
     17  CG        11.9510   27.8970   -1.6790 C.3    23  LEU23       0.0019
     18  CD1       11.4840   29.3230   -1.9420 C.3    23  LEU23       0.0001
     19  CD2       11.0660   27.2260   -0.6180 C.3    23  LEU23       0.0001
     20  N         16.7240   27.2330   -1.6690 N.3    25  ASP25      -0.1239
     21  CA        16.7040   26.9470   -0.2450 C.3    25  ASP25       0.1674
     22  C         18.0640   26.6700    0.4050 C.2    25  ASP25       0.2266
     23  O         18.5590   25.5430    0.3480 O.2    25  ASP25      -0.2867
     24  CB        15.7860   25.7360   -0.0660 C.3    25  ASP25       0.1410
     25  CG        15.3050   25.5650    1.3410 C.2    25  ASP25       0.3668
     26  OD1       16.0940   25.8230    2.2720 O.co2  25  ASP25      -0.2456
     27  OD2       14.1350   25.1530    1.5050 O.co2  25  ASP25      -0.2456
     28  N         18.6630   26.3780    3.4320 N.3    27  GLY27      -0.1210
     29  CA        18.5080   25.5290    4.6000 C.3    27  GLY27       0.1956
     30  C         18.5340   24.0360    4.2780 C.2    27  GLY27       0.2612
     31  O         18.7020   23.2030    5.1710 O.2    27  GLY27      -0.2717
     32  N         18.3780   23.6990    3.0020 N.am   28  ALA28      -0.1965
     33  CA        18.3560   22.3030    2.5560 C.3    28  ALA28       0.1728
     34  C         19.7230   21.8250    2.0620 C.2    28  ALA28       0.2616
     35  O         20.3720   22.5040    1.2670 O.2    28  ALA28      -0.2715
     36  CB        17.3280   22.1500    1.4540 C.3    28  ALA28       0.0334
     37  N         20.1590   20.6520    2.5180 N.am   29  ASP29      -0.1957
     38  CA        21.4610   20.1330    2.0890 C.3    29  ASP29       0.1840
     39  C         21.3780   19.5850    0.6780 C.2    29  ASP29       0.2622
     40  O         22.3330   19.6790   -0.1020 O.2    29  ASP29      -0.2715
     41  CB        21.9470   18.9900    2.9930 C.3    29  ASP29       0.1450
     42  CG        22.0710   19.3910    4.4460 C.2    29  ASP29       0.3671
     43  OD1       22.5630   20.4970    4.7300 O.co2  29  ASP29      -0.2456
     44  OD2       21.6850   18.5760    5.3100 O.co2  29  ASP29      -0.2456
     45  N         20.2270   19.0020    0.3630 N.am   30  ASP30      -0.1971
     46  CA        20.0050   18.3880   -0.9340 C.3    30  ASP30       0.1709
     47  C         18.8470   19.0190   -1.6850 C.2    30  ASP30       0.2293
     48  O         18.1020   19.8300   -1.1450 O.2    30  ASP30      -0.2864
     49  CB        19.7120   16.8960   -0.7540 C.3    30  ASP30       0.1436
     50  CG        20.7090   16.2100    0.1630 C.2    30  ASP30       0.3671
     51  OD1       21.9090   16.2090   -0.1630 O.co2  30  ASP30      -0.2456
     52  OD2       20.2870   15.6690    1.2080 O.co2  30  ASP30      -0.2456
     53  N         15.3480   18.4090   -3.5300 N.3    32  VAL32      -0.1245
     54  CA        14.2250   17.4770   -3.5010 C.3    32  VAL32       0.1561
     55  C         13.0750   18.0020   -4.3490 C.2    32  VAL32       0.2260
     56  O         12.6130   19.1290   -4.1590 O.2    32  VAL32      -0.2867
     57  CB        13.6920   17.2720   -2.0720 C.3    32  VAL32       0.0252
     58  CG1       12.8040   16.0310   -2.0310 C.3    32  VAL32       0.0019
     59  CG2       14.8420   17.1480   -1.0940 C.3    32  VAL32       0.0019
     60  N         15.5010   11.9020    4.4720 N.3    47  ILE47      -0.1231
     61  CA        15.8200   13.3050    4.7090 C.3    47  ILE47       0.1692
     62  C         14.8320   13.8400    5.7250 C.2    47  ILE47       0.2593
     63  O         13.6640   13.4380    5.7410 O.2    47  ILE47      -0.2718
     64  CB        15.7500   14.1650    3.4240 C.3    47  ILE47       0.0266
     65  CG1       14.3540   14.0880    2.7990 C.3    47  ILE47       0.0019
     66  CG2       16.8320   13.7200    2.4440 C.3    47  ILE47       0.0020
     67  CD1       14.1740   15.0360    1.6250 C.3    47  ILE47       0.0001
     68  N         15.3000   14.7430    6.5790 N.am   48  GLY48      -0.1942
     69  CA        14.4300   15.2810    7.6030 C.3    48  GLY48       0.2014
     70  C         14.1360   16.7610    7.5250 C.2    48  GLY48       0.2639
     71  O         14.9400   17.5590    7.0480 O.2    48  GLY48      -0.2714
     72  N         12.9460   17.1130    7.9890 N.am   49  GLY49      -0.1939
     73  CA        12.5240   18.4960    8.0190 C.3    49  GLY49       0.2014
     74  C         12.0690   18.7180    9.4430 C.2    49  GLY49       0.2638
     75  O         12.3260   17.8780   10.3070 O.2    49  GLY49      -0.2714
     76  N         11.3840   19.8210    9.7030 N.am   50  ILE50      -0.1977
     77  CA        10.9130   20.0980   11.0530 C.3    50  ILE50       0.1596
     78  C          9.8910   19.0820   11.5710 C.2    50  ILE50       0.2287
     79  O          9.8180   18.8350   12.7720 O.2    50  ILE50      -0.2864
     80  CB        10.2910   21.5010   11.1480 C.3    50  ILE50       0.0276
     81  CG1       11.3730   22.5610   10.9600 C.3    50  ILE50       0.0022
     82  CG2        9.6470   21.6900   12.4970 C.3    50  ILE50       0.0022
     83  CD1       10.8810   23.9710   11.2070 C.3    50  ILE50       0.0001
     84  N          6.7740   19.2670    0.2220 N.3    81  PRO81      -0.2102
     85  CA         5.7510   20.3170    0.1410 C.3    81  PRO81       0.1504
     86  C          5.8980   21.2100   -1.0970 C.2    81  PRO81       0.2575
     87  O          4.9040   21.6920   -1.6470 O.2    81  PRO81      -0.2718
     88  CB         5.9620   21.1080    1.4310 C.3    81  PRO81       0.0282
     89  CG         6.5280   20.1020    2.3690 C.3    81  PRO81       0.0208
     90  CD         7.4990   19.3430    1.5020 C.3    81  PRO81       0.0893
     91  N          7.1420   21.4250   -1.5230 N.am   82  VAL82      -0.1980
     92  CA         7.4560   22.2600   -2.6880 C.3    82  VAL82       0.1595
     93  C          8.7830   21.8130   -3.2870 C.2    82  VAL82       0.2287
     94  O          9.5900   21.1810   -2.5990 O.2    82  VAL82      -0.2864
     95  CB         7.6140   23.7530   -2.2950 C.3    82  VAL82       0.0276
     96  CG1        6.2860   24.3280   -1.8410 C.3    82  VAL82       0.0022
     97  CG2        8.6570   23.8870   -1.1880 C.3    82  VAL82       0.0022
     98  N         12.3990   21.9160   -4.0250 N.3    84  ILE84      -0.1245
     99  CA        13.4920   22.5670   -3.3200 C.3    84  ILE84       0.1561
    100  C         14.8790   22.3900   -3.9510 C.2    84  ILE84       0.2260
    101  O         15.3320   21.2680   -4.1850 O.2    84  ILE84      -0.2867
    102  CB        13.5620   22.0520   -1.8550 C.3    84  ILE84       0.0252
    103  CG1       12.3840   22.5980   -1.0470 C.3    84  ILE84       0.0019
    104  CG2       14.8800   22.4440   -1.2190 C.3    84  ILE84       0.0019
    105  CD1       12.2750   22.0060    0.3580 C.3    84  ILE84       0.0001
@<TRIPOS>BOND
     1    12    13    1
     2    55    56    2
     3    55    54    1
     4    13    14    1
     5    13    16    1
     6   101   100    2
     7    98    99    1
     8     4     3    2
     9   100    99    1
    10    14    15    2
    11    53    54    1
    12    54    57    1
    13    99   102    1
    14    93    92    1
    15    93    94    2
    16    16    17    1
    17     3     2    1
    18    92    95    1
    19    92    91    1
    20    95    96    1
    21    95    97    1
    22    57    58    1
    23    57    59    1
    24    18    17    1
    25     5     2    1
    26     5     6    1
    27   102   104    1
    28   102   103    1
    29     2     1    1
    30    47    48    2
    31    47    46    1
    32    17    19    1
    33    20    21    1
    34    87    86    2
    35    91    86   am
    36    86    85    1
    37   103   105    1
    38    46    49    1
    39    46    45    1
    40     7     6    1
    41     7     8    1
    42    49    50    1
    43    10     9    1
    44    21    24    1
    45    21    22    1
    46    51    50   ar
    47    40    39    2
    48    24    25    1
    49    85    84    1
    50    85    88    1
    51    50    52   ar
    52    84    90    1
    53    23    22    2
    54    45    39   am
    55     8     9    2
    56     9    11    1
    57    39    38    1
    58    35    34    2
    59    25    27   ar
    60    25    26   ar
    61    88    89    1
    62    36    33    1
    63    90    89    1
    64    67    65    1
    65    34    37   am
    66    34    33    1
    67    38    37    1
    68    38    41    1
    69    66    64    1
    70    33    32    1
    71    65    64    1
    72    41    42    1
    73    32    30   am
    74    64    61    1
    75    28    29    1
    76    30    29    1
    77    30    31    2
    78    42    43   ar
    79    42    44   ar
    80    60    61    1
    81    61    62    1
    82    62    63    2
    83    62    68   am
    84    68    69    1
    85    71    70    2
    86    70    69    1
    87    70    72   am
    88    72    73    1
    89    73    74    1
    90    74    76   am
    91    74    75    2
    92    76    77    1
    93    81    80    1
    94    81    83    1
    95    77    80    1
    96    77    78    1
    97    80    82    1
    98    78    79    2
