@<TRIPOS>MOLECULE
tmp/1g2lA00.pdb
 190 191 0 0 0
SMALL
GASTEIGER

@<TRIPOS>ATOM
      1  N         13.1870   11.4050   13.8400 N.3    42  HIS42      -0.1241
      2  CA        11.7320   11.4530   13.9040 C.3    42  HIS42       0.1621
      3  C         11.1560   12.8010   14.3160 C.2    42  HIS42       0.2264
      4  O         10.0220   13.1250   13.9680 O.2    42  HIS42      -0.2867
      5  CB        11.1780   10.3290   14.8010 C.3    42  HIS42       0.0745
      6  CG        11.1640   10.6480   16.2650 C.ar   42  HIS42       0.0817
      7  ND1       12.0930   10.1380   17.1460 N.ar   42  HIS42      -0.2268
      8  CD2       10.3110   11.3920   17.0080 C.ar   42  HIS42       0.1154
      9  CE1       11.8120   10.5510   18.3690 C.ar   42  HIS42       0.1986
     10  NE2       10.7350   11.3140   18.3140 N.ar   42  HIS42      -0.2212
     11  N         10.0970    4.9610   10.2850 N.3    82  LYS82      -0.1231
     12  CA         9.1460    4.8430   11.3750 C.3    82  LYS82       0.1693
     13  C          8.7050    3.3970   11.5680 C.2    82  LYS82       0.2592
     14  O          8.1090    3.0560   12.5910 O.2    82  LYS82      -0.2718
     15  CB         7.9330    5.7410   11.1180 C.3    82  LYS82       0.0285
     16  CG         8.2320    7.2210   11.2970 C.3    82  LYS82       0.0035
     17  CD         6.9890    8.0840   11.1090 C.3    82  LYS82       0.0206
     18  CE         7.2820    9.5420   11.4530 C.3    82  LYS82       0.1093
     19  NZ         6.0950   10.4240   11.2630 N.3    82  LYS82      -0.1314
     20  N          9.0030    2.5450   10.5930 N.am   83  GLU83      -0.1966
     21  CA         8.6250    1.1420   10.6990 C.3    83  GLU83       0.1733
     22  C          9.3240    0.4830   11.8780 C.2    83  GLU83       0.2617
     23  O          8.7270   -0.3220   12.5870 O.2    83  GLU83      -0.2715
     24  CB         8.9780    0.3700    9.4230 C.3    83  GLU83       0.0429
     25  CG         8.5730   -1.1010    9.4990 C.3    83  GLU83       0.1163
     26  CD         9.0890   -1.9410    8.3400 C.2    83  GLU83       0.3649
     27  OE1       10.3250   -2.0440    8.1790 O.co2  83  GLU83      -0.2457
     28  OE2        8.2570   -2.5060    7.5950 O.co2  83  GLU83      -0.2457
     29  N         10.5910    0.8310   12.0850 N.am   84  THR84      -0.1937
     30  CA        11.3780    0.2520   13.1740 C.3    84  THR84       0.2028
     31  C         11.9700    1.3100   14.1020 C.2    84  THR84       0.2642
     32  O         12.3810    1.0050   15.2200 O.2    84  THR84      -0.2714
     33  CB        12.5610   -0.5660   12.6230 C.3    84  THR84       0.1808
     34  OG1       13.4520    0.3130   11.9230 O.3    84  THR84      -0.2208
     35  CG2       12.0740   -1.6520   11.6690 C.3    84  THR84       0.0379
     36  N         12.0100    2.5470   13.6190 N.am   85  TYR85      -0.1973
     37  CA        12.5890    3.6750   14.3440 C.3    85  TYR85       0.1639
     38  C         14.0900    3.5030   14.4980 C.2    85  TYR85       0.2290
     39  O         14.7300    4.1190   15.3520 O.2    85  TYR85      -0.2864
     40  CB        11.9180    3.8780   15.7050 C.3    85  TYR85       0.0560
     41  CG        10.7250    4.7920   15.5970 C.ar   85  TYR85      -0.0198
     42  CD1        9.4940    4.3140   15.1550 C.ar   85  TYR85      -0.0009
     43  CD2       10.8470    6.1560   15.8510 C.ar   85  TYR85      -0.0009
     44  CE1        8.4200    5.1700   14.9640 C.ar   85  TYR85       0.0417
     45  CE2        9.7800    7.0210   15.6630 C.ar   85  TYR85       0.0417
     46  CZ         8.5690    6.5220   15.2200 C.ar   85  TYR85       0.1957
     47  OH         7.5020    7.3750   15.0430 O.3    85  TYR85      -0.2866
     48  N          9.0110   -4.4840   20.8190 N.3   162  PHE162     -0.1227
     49  CA         9.5480   -4.1470   19.5100 C.3   162  PHE162      0.1736
     50  C         11.0400   -4.4330   19.4350 C.2   162  PHE162      0.2595
     51  O         11.7320   -4.4820   20.4540 O.2   162  PHE162     -0.2718
     52  CB         9.2760   -2.6780   19.2050 C.3   162  PHE162      0.0547
     53  CG         7.8170   -2.3440   19.1200 C.ar  162  PHE162     -0.0202
     54  CD1        7.1040   -2.5750   17.9500 C.ar  162  PHE162     -0.0042
     55  CD2        7.1480   -1.8180   20.2180 C.ar  162  PHE162     -0.0042
     56  CE1        5.7450   -2.2870   17.8740 C.ar  162  PHE162     -0.0003
     57  CE2        5.7890   -1.5280   20.1520 C.ar  162  PHE162     -0.0003
     58  CZ         5.0880   -1.7620   18.9790 C.ar  162  PHE162     -0.0000
     59  N         11.5310   -4.6180   18.2170 N.am  163  ILE163     -0.1980
     60  CA        12.9350   -4.9190   18.0000 C.3   163  ILE163      0.1595
     61  C         13.8840   -3.8150   18.4470 C.2   163  ILE163      0.2287
     62  O         13.7280   -2.6560   18.0690 O.2   163  ILE163     -0.2864
     63  CB        13.2140   -5.2010   16.5110 C.3   163  ILE163      0.0276
     64  CG1       12.3740   -6.3900   16.0400 C.3   163  ILE163      0.0022
     65  CG2       14.6950   -5.4800   16.3090 C.3   163  ILE163      0.0022
     66  CD1       12.4160   -6.6110   14.5420 C.3   163  ILE163      0.0001
     67  N         11.5630    8.2570   34.0950 N.3   179  ASP179     -0.1225
     68  CA        11.8860    7.9260   32.7110 C.3   179  ASP179      0.1805
     69  C         11.7530    9.1840   31.8540 C.2   179  ASP179      0.2598
     70  O         11.2720   10.2150   32.3280 O.2   179  ASP179     -0.2718
     71  CB        10.8980    6.8410   32.2480 C.3   179  ASP179      0.1424
     72  CG        11.2040    6.2890   30.8700 C.2   179  ASP179      0.3668
     73  OD1       12.3160    6.5170   30.3440 O.co2 179  ASP179     -0.2456
     74  OD2       10.3120    5.5980   30.3210 O.co2 179  ASP179     -0.2456
     75  N         12.2210    9.1170   30.6100 N.am  180  ALA180     -0.1966
     76  CA        12.0710   10.2520   29.7070 C.3   180  ALA180      0.1728
     77  C         10.6610   10.0560   29.1730 C.2   180  ALA180      0.2616
     78  O         10.0350    9.0320   29.4550 O.2   180  ALA180     -0.2715
     79  CB        13.0790   10.1840   28.5790 C.3   180  ALA180      0.0334
     80  N         10.1520   11.0080   28.4020 N.am  181  CYS181     -0.1954
     81  CA         8.7990   10.8670   27.8910 C.3   181  CYS181      0.1843
     82  C          8.5980   11.6610   26.6110 C.2   181  CYS181      0.2625
     83  O          9.5320   12.2830   26.1010 O.2   181  CYS181     -0.2714
     84  CB         7.8030   11.3210   28.9650 C.3   181  CYS181      0.0997
     85  SG         6.0960   10.7180   28.7560 S.3   181  CYS181     -0.0797
     86  N          7.3760   11.6300   26.0880 N.am  182  GLN182     -0.1963
     87  CA         7.0560   12.3570   24.8710 C.3   182  GLN182      0.1733
     88  C          7.4880   13.8070   25.0610 C.2   182  GLN182      0.2616
     89  O          7.2120   14.4160   26.0950 O.2   182  GLN182     -0.2715
     90  CB         5.5500   12.2850   24.5950 C.3   182  GLN182      0.0408
     91  CG         5.1520   12.7180   23.1900 C.3   182  GLN182      0.0908
     92  CD         3.6710   12.5140   22.9120 C.2   182  GLN182      0.2608
     93  OE1        3.1190   11.4490   23.1900 O.2   182  GLN182     -0.2717
     94  NE2        3.0250   13.5300   22.3490 N.am  182  GLN182     -0.0878
     95  N          8.1790   14.3560   24.0710 N.am  183  GLY183     -0.1955
     96  CA         8.6320   15.7260   24.1870 C.3   183  GLY183      0.1869
     97  C         10.1130   15.7940   24.5010 C.2   183  GLY183      0.2309
     98  O         10.7750   16.7820   24.1920 O.2   183  GLY183     -0.2863
     99  N         12.1180   13.5920   23.3040 N.3   185  SER185     -0.1217
    100  CA        12.7150   13.0410   22.0950 C.3   185  SER185      0.1889
    101  C         13.7370   13.9740   21.4600 C.2   185  SER185      0.2288
    102  O         13.5070   15.1800   21.3450 O.2   185  SER185     -0.2866
    103  CB        11.6230   12.7270   21.0650 C.3   185  SER185      0.2089
    104  OG        10.8440   11.6180   21.4650 O.3   185  SER185     -0.2183
    105  N         17.3860   10.7390   23.0830 N.3   203  VAL203     -0.1231
    106  CA        16.0930   10.2060   23.5160 C.3   203  VAL203      0.1692
    107  C         15.3450    9.8300   22.2330 C.2   203  VAL203      0.2593
    108  O         15.1670   10.6630   21.3450 O.2   203  VAL203     -0.2718
    109  CB        15.2900   11.2580   24.3130 C.3   203  VAL203      0.0266
    110  CG1       13.9340   10.6820   24.7350 C.3   203  VAL203      0.0020
    111  CG2       16.0890   11.6940   25.5500 C.3   203  VAL203      0.0020
    112  N         14.9200    8.5760   22.1250 N.am  204  SER204     -0.1938
    113  CA        14.2460    8.1400   20.9050 C.3   204  SER204      0.2055
    114  C         12.7900    7.7120   21.0700 C.2   204  SER204      0.2643
    115  O         11.8960    8.3230   20.4930 O.2   204  SER204     -0.2714
    116  CB        15.0530    7.0130   20.2500 C.3   204  SER204      0.2130
    117  OG        14.4950    6.6500   19.0020 O.3   204  SER204     -0.2179
    118  N         12.5450    6.6570   21.8310 N.am  205  TRP205     -0.1959
    119  CA        11.1690    6.2150   22.0300 C.3   205  TRP205      0.1771
    120  C         11.0120    5.3360   23.2550 C.2   205  TRP205      0.2620
    121  O         11.9570    5.1140   24.0080 O.2   205  TRP205     -0.2715
    122  CB        10.6530    5.4640   20.7910 C.3   205  TRP205      0.0590
    123  CG        11.4570    4.2540   20.4330 C.ar  205  TRP205      0.0006
    124  CD1       12.6120    4.2260   19.7100 C.ar  205  TRP205      0.0946
    125  CD2       11.1800    2.8950   20.8020 C.ar  205  TRP205      0.0152
    126  NE1       13.0730    2.9370   19.6040 N.ar  205  TRP205     -0.2442
    127  CE2       12.2150    2.0980   20.2640 C.ar  205  TRP205      0.0810
    128  CE3       10.1590    2.2730   21.5360 C.ar  205  TRP205      0.0012
    129  CZ2       12.2630    0.7050   20.4360 C.ar  205  TRP205      0.0191
    130  CZ3       10.2030    0.8860   21.7080 C.ar  205  TRP205      0.0001
    131  CH2       11.2500    0.1190   21.1590 C.ar  205  TRP205      0.0015
    132  N          9.7950    4.8470   23.4510 N.am  206  GLY206     -0.1940
    133  CA         9.5170    3.9870   24.5780 C.3   206  GLY206      0.2014
    134  C          8.0620    3.5800   24.5380 C.2   206  GLY206      0.2639
    135  O          7.2510    4.2250   23.8760 O.2   206  GLY206     -0.2714
    136  N          7.7340    2.4980   25.2280 N.am  207  GLU207     -0.1963
    137  CA         6.3570    2.0330   25.2840 C.3   207  GLU207      0.1733
    138  C          5.7500    2.7290   26.5010 C.2   207  GLU207      0.2617
    139  O          5.8600    2.2520   27.6280 O.2   207  GLU207     -0.2715
    140  CB         6.3360    0.5100   25.4260 C.3   207  GLU207      0.0429
    141  CG         7.0220   -0.1940   24.2550 C.3   207  GLU207      0.1163
    142  CD         6.9520   -1.7090   24.3390 C.2   207  GLU207      0.3649
    143  OE1        5.8270   -2.2570   24.3360 O.co2 207  GLU207     -0.2457
    144  OE2        8.0230   -2.3510   24.4060 O.co2 207  GLU207     -0.2457
    145  N          5.1270    3.8770   26.2590 N.am  208  GLY208     -0.1940
    146  CA         4.5610    4.6480   27.3490 C.3   208  GLY208      0.2014
    147  C          5.7140    5.3320   28.0630 C.2   208  GLY208      0.2639
    148  O          6.8020    5.4560   27.4940 O.2   208  GLY208     -0.2714
    149  N          5.5010    5.7660   29.3010 N.am  209  CYS209     -0.1967
    150  CA         6.5590    6.4330   30.0570 C.3   209  CYS209      0.1712
    151  C          6.6350    5.9100   31.4820 C.2   209  CYS209      0.2296
    152  O          5.6280    5.8820   32.1890 O.2   209  CYS209     -0.2864
    153  CB         6.3230    7.9520   30.0810 C.3   209  CYS209      0.0983
    154  SG         6.3100    8.7200   28.4290 S.3   209  CYS209     -0.0798
    155  N         11.5560    0.1000   29.5790 N.3   215  TYR215     -0.1227
    156  CA        12.6420    1.0600   29.7380 C.3   215  TYR215      0.1736
    157  C         12.5890    2.1440   28.6620 C.2   215  TYR215      0.2596
    158  O         11.8070    2.0600   27.7170 O.2   215  TYR215     -0.2718
    159  CB        13.9860    0.3310   29.6510 C.3   215  TYR215      0.0548
    160  CG        14.1390   -0.8060   30.6370 C.ar  215  TYR215     -0.0200
    161  CD1       14.5650   -0.5720   31.9430 C.ar  215  TYR215     -0.0009
    162  CD2       13.8680   -2.1210   30.2570 C.ar  215  TYR215     -0.0009
    163  CE1       14.7220   -1.6220   32.8470 C.ar  215  TYR215      0.0417
    164  CE2       14.0200   -3.1750   31.1530 C.ar  215  TYR215      0.0417
    165  CZ        14.4480   -2.9190   32.4410 C.ar  215  TYR215      0.1957
    166  OH        14.6180   -3.9620   33.3170 O.3   215  TYR215     -0.2866
    167  N         13.4240    3.1670   28.8180 N.am  216  GLY216     -0.1942
    168  CA        13.4750    4.2240   27.8280 C.3   216  GLY216      0.2014
    169  C         14.4440    3.7630   26.7530 C.2   216  GLY216      0.2639
    170  O         15.4790    3.1730   27.0700 O.2   216  GLY216     -0.2714
    171  N         14.1150    4.0150   25.4910 N.am  217  ILE217     -0.1963
    172  CA        14.9780    3.5880   24.3950 C.3   217  ILE217      0.1727
    173  C         15.6870    4.7910   23.7850 C.2   217  ILE217      0.2616
    174  O         15.0710    5.8260   23.5110 O.2   217  ILE217     -0.2715
    175  CB        14.1810    2.8380   23.3160 C.3   217  ILE217      0.0290
    176  CG1       13.2580    1.8000   23.9720 C.3   217  ILE217      0.0022
    177  CG2       15.1480    2.1450   22.3520 C.3   217  ILE217      0.0023
    178  CD1       13.9680    0.7750   24.8390 C.3   217  ILE217      0.0001
    179  N         16.9900    4.6360   23.5740 N.am  218  TYR218     -0.1974
    180  CA        17.8290    5.7130   23.0700 C.3   218  TYR218      0.1639
    181  C         18.6360    5.3240   21.8550 C.2   218  TYR218      0.2290
    182  O         19.0030    4.1670   21.6970 O.2   218  TYR218     -0.2864
    183  CB        18.8300    6.1250   24.1500 C.3   218  TYR218      0.0560
    184  CG        18.2000    6.6130   25.4250 C.ar  218  TYR218     -0.0198
    185  CD1       18.1110    7.9720   25.6950 C.ar  218  TYR218     -0.0009
    186  CD2       17.6630    5.7170   26.3490 C.ar  218  TYR218     -0.0009
    187  CE1       17.4990    8.4420   26.8590 C.ar  218  TYR218      0.0417
    188  CE2       17.0450    6.1770   27.5200 C.ar  218  TYR218      0.0417
    189  CZ        16.9690    7.5400   27.7630 C.ar  218  TYR218      0.1957
    190  OH        16.3640    8.0060   28.9090 O.3   218  TYR218     -0.2866
@<TRIPOS>BOND
     1    28    26   ar
     2    27    26   ar
     3    26    25    1
     4    24    25    1
     5    24    21    1
     6    11    12    1
     7    20    21    1
     8    20    13   am
     9    21    22    1
    10    17    16    1
    11    17    18    1
    12    15    16    1
    13    15    12    1
    14    19    18    1
    15    12    13    1
    16    13    14    2
    17    35    33    1
    18    22    29   am
    19    22    23    2
    20    34    33    1
    21    29    30    1
    22    33    30    1
    23    30    31    1
    24    36    31   am
    25    36    37    1
    26     1     2    1
    27     2     3    1
    28     2     5    1
    29     4     3    2
    30    31    32    2
    31    37    38    1
    32    37    40    1
    33    38    39    2
    34    66    64    1
    35     5     6    1
    36    44    42   ar
    37    44    46   ar
    38    47    46    1
    39    42    41   ar
    40    46    45   ar
    41    41    40    1
    42    41    43   ar
    43    45    43   ar
    44    64    63    1
    45     6     8   ar
    46     6     7   ar
    47    65    63    1
    48    63    60    1
    49     8    10   ar
    50     7     9   ar
    51    56    54   ar
    52    56    58   ar
    53    54    53   ar
    54    60    59    1
    55    60    61    1
    56    62    61    2
    57    59    50   am
    58    10     9   ar
    59    58    57   ar
    60   117   116    1
    61    53    52    1
    62    53    55   ar
    63    52    49    1
    64    50    49    1
    65    50    51    2
    66    49    48    1
    67   126   124   ar
    68   126   127   ar
    69   124   123   ar
    70    57    55   ar
    71   116   113    1
    72   127   129   ar
    73   127   125   ar
    74   123   122    1
    75   123   125   ar
    76   129   131   ar
    77   115   114    2
    78   122   119    1
    79   125   128   ar
    80   113   114    1
    81   113   112    1
    82   103   104    1
    83   103   100    1
    84   114   118   am
    85   131   130   ar
    86   102   101    2
    87   108   107    2
    88   101   100    1
    89   128   130   ar
    90   182   181    2
    91   118   119    1
    92   181   180    1
    93   119   120    1
    94   100    99    1
    95   112   107   am
    96   107   106    1
    97    94    92   am
    98   177   175    1
    99    92    93    2
   100    92    91    1
   101   180   179    1
   102   180   183    1
   103   105   106    1
   104    91    90    1
   105   120   132   am
   106   120   121    2
   107   175   176    1
   108   175   172    1
   109   132   133    1
   110   174   173    2
   111   106   109    1
   112   179   173   am
   113   173   172    1
   114   135   134    2
   115   176   178    1
   116    95    96    1
   117    95    88   am
   118   183   184    1
   119    96    97    1
   120    98    97    2
   121   141   142    1
   122   141   140    1
   123   109   110    1
   124   109   111    1
   125   143   142   ar
   126   142   144   ar
   127   172   171    1
   128   134   133    1
   129   134   136   am
   130    90    87    1
   131    87    88    1
   132    87    86    1
   133    88    89    2
   134   136   137    1
   135   137   140    1
   136   137   138    1
   137   184   185   ar
   138   184   186   ar
   139   171   169   am
   140   185   187   ar
   141    86    82   am
   142    83    82    2
   143   145   138   am
   144   145   146    1
   145   186   188   ar
   146   138   139    2
   147    82    81    1
   148   169   170    2
   149   169   168    1
   150   187   189   ar
   151   146   147    1
   152   148   147    2
   153   188   189   ar
   154   158   157    2
   155   189   190    1
   156   168   167    1
   157    81    80    1
   158    81    84    1
   159   147   149   am
   160    80    77   am
   161   154    85    1
   162   154   153    1
   163    79    76    1
   164   157   167   am
   165   157   156    1
   166    85    84    1
   167    77    78    2
   168    77    76    1
   169   149   150    1
   170   155   156    1
   171   159   156    1
   172   159   160    1
   173    76    75    1
   174   150   153    1
   175   150   151    1
   176   162   160   ar
   177   162   164   ar
   178    74    72   ar
   179    73    72   ar
   180    75    69   am
   181   160   161   ar
   182    72    71    1
   183   164   165   ar
   184   151   152    2
   185    69    70    2
   186    69    68    1
   187   161   163   ar
   188    71    68    1
   189   165   163   ar
   190   165   166    1
   191    68    67    1
