@<TRIPOS>MOLECULE
tmp/1g2mA00.pdb
 190 191 0 0 0
SMALL
GASTEIGER

@<TRIPOS>ATOM
      1  N         14.1510   11.6210   14.4880 N.3    42  HIS42      -0.1241
      2  CA        12.6910   11.6550   14.4220 C.3    42  HIS42       0.1621
      3  C         12.0810   13.0130   14.7910 C.2    42  HIS42       0.2264
      4  O         10.9750   13.3330   14.3550 O.2    42  HIS42      -0.2867
      5  CB        12.0590   10.5190   15.2460 C.3    42  HIS42       0.0745
      6  CG        12.0130   10.7750   16.7230 C.ar   42  HIS42       0.0817
      7  ND1       12.9960   10.3480   17.5860 N.ar   42  HIS42      -0.2268
      8  CD2       11.0880   11.4040   17.4880 C.ar   42  HIS42       0.1154
      9  CE1       12.6840   10.7050   18.8220 C.ar   42  HIS42       0.1986
     10  NE2       11.5310   11.3460   18.7880 N.ar   42  HIS42      -0.2212
     11  N         11.1050    5.3020   10.6080 N.3    82  LYS82      -0.1231
     12  CA        10.1100    5.2250   11.6770 C.3    82  LYS82       0.1693
     13  C          9.6710    3.7820   11.9270 C.2    82  LYS82       0.2592
     14  O          9.2790    3.4170   13.0360 O.2    82  LYS82      -0.2718
     15  CB         8.8860    6.0790   11.3410 C.3    82  LYS82       0.0285
     16  CG         9.0580    7.5650   11.6170 C.3    82  LYS82       0.0035
     17  CD         7.7670    8.3220   11.3320 C.3    82  LYS82       0.0206
     18  CE         7.8650    9.7780   11.7570 C.3    82  LYS82       0.1093
     19  NZ         6.6450   10.5310   11.3570 N.3    82  LYS82      -0.1314
     20  N          9.7790    2.9620   10.8890 N.am   83  GLU83      -0.1966
     21  CA         9.3940    1.5600   10.9520 C.3    83  GLU83       0.1733
     22  C         10.3100    0.7370   11.8600 C.2    83  GLU83       0.2617
     23  O          9.9780   -0.3900   12.2160 O.2    83  GLU83      -0.2715
     24  CB         9.3830    0.9810    9.5310 C.3    83  GLU83       0.0429
     25  CG         8.4890    1.7700    8.5620 C.3    83  GLU83       0.1163
     26  CD         8.7550    1.4640    7.0910 C.2    83  GLU83       0.3649
     27  OE1        8.0710    0.5830    6.5250 O.co2  83  GLU83      -0.2457
     28  OE2        9.6290    2.1230    6.4890 O.co2  83  GLU83      -0.2457
     29  N         11.4400    1.3130   12.2610 N.am   84  THR84      -0.1937
     30  CA        12.4050    0.6090   13.1070 C.3    84  THR84       0.2028
     31  C         13.0270    1.4550   14.2140 C.2    84  THR84       0.2642
     32  O         13.5560    0.9190   15.1870 O.2    84  THR84      -0.2714
     33  CB        13.5590    0.0560   12.2600 C.3    84  THR84       0.1808
     34  OG1       13.9460    1.0400   11.2870 O.3    84  THR84      -0.2208
     35  CG2       13.1520   -1.2330   11.5630 C.3    84  THR84       0.0379
     36  N         12.9910    2.7720   14.0390 N.am   85  TYR85      -0.1973
     37  CA        13.5670    3.7140   14.9910 C.3    85  TYR85       0.1639
     38  C         15.0550    3.4970   15.2530 C.2    85  TYR85       0.2290
     39  O         15.5920    3.8880   16.2940 O.2    85  TYR85      -0.2864
     40  CB        12.7580    3.7440   16.2880 C.3    85  TYR85       0.0560
     41  CG        11.6500    4.7580   16.2190 C.ar   85  TYR85      -0.0198
     42  CD1       10.4200    4.4370   15.6510 C.ar   85  TYR85      -0.0009
     43  CD2       11.8630    6.0670   16.6400 C.ar   85  TYR85      -0.0009
     44  CE1        9.4290    5.4010   15.4950 C.ar   85  TYR85       0.0417
     45  CE2       10.8820    7.0380   16.4880 C.ar   85  TYR85       0.0417
     46  CZ         9.6690    6.6990   15.9130 C.ar   85  TYR85       0.1957
     47  OH         8.7030    7.6610   15.7510 O.3    85  TYR85      -0.2866
     48  N          9.5380   -4.1260   21.4770 N.3   162  PHE162     -0.1227
     49  CA        10.1200   -3.9120   20.1570 C.3   162  PHE162      0.1736
     50  C         11.5970   -4.2630   20.1490 C.2   162  PHE162      0.2595
     51  O         12.2490   -4.2790   21.1920 O.2   162  PHE162     -0.2718
     52  CB         9.9270   -2.4620   19.7120 C.3   162  PHE162      0.0547
     53  CG         8.5020   -1.9970   19.7690 C.ar  162  PHE162     -0.0202
     54  CD1        7.5960   -2.3670   18.7850 C.ar  162  PHE162     -0.0042
     55  CD2        8.0630   -1.1870   20.8120 C.ar  162  PHE162     -0.0042
     56  CE1        6.2690   -1.9360   18.8370 C.ar  162  PHE162     -0.0003
     57  CE2        6.7400   -0.7510   20.8740 C.ar  162  PHE162     -0.0003
     58  CZ         5.8410   -1.1260   19.8850 C.ar  162  PHE162     -0.0000
     59  N         12.1140   -4.5350   18.9580 N.am  163  ILE163     -0.1980
     60  CA        13.5130   -4.9020   18.7760 C.3   163  ILE163      0.1595
     61  C         14.4950   -3.7860   19.1710 C.2   163  ILE163      0.2287
     62  O         14.4270   -2.6690   18.6560 O.2   163  ILE163     -0.2864
     63  CB        13.7690   -5.3690   17.3040 C.3   163  ILE163      0.0276
     64  CG1       15.2650   -5.5780   17.0510 C.3   163  ILE163      0.0022
     65  CG2       13.1680   -4.3760   16.3120 C.3   163  ILE163      0.0022
     66  CD1       15.6140   -5.8850   15.6020 C.3   163  ILE163      0.0001
     67  N         11.5650    8.6670   34.8140 N.3   179  ASP179     -0.1225
     68  CA        11.9630    8.3410   33.4550 C.3   179  ASP179      0.1805
     69  C         11.7120    9.5320   32.5500 C.2   179  ASP179      0.2598
     70  O         10.8440   10.3430   32.8390 O.2   179  ASP179     -0.2718
     71  CB        11.1220    7.1520   32.9870 C.3   179  ASP179      0.1424
     72  CG        11.5480    6.6140   31.6430 C.2   179  ASP179      0.3668
     73  OD1       12.7480    6.6870   31.2940 O.co2 179  ASP179     -0.2456
     74  OD2       10.6590    6.0810   30.9570 O.co2 179  ASP179     -0.2456
     75  N         12.4770    9.6460   31.4680 N.am  180  ALA180     -0.1966
     76  CA        12.2820   10.7300   30.5170 C.3   180  ALA180      0.1728
     77  C         10.9040   10.4930   29.9110 C.2   180  ALA180      0.2616
     78  O         10.2610    9.4880   30.2160 O.2   180  ALA180     -0.2715
     79  CB        13.3490   10.6970   29.4390 C.3   180  ALA180      0.0334
     80  N         10.4560   11.3820   29.0370 N.am  181  CYS181     -0.1954
     81  CA         9.1390   11.2130   28.4550 C.3   181  CYS181      0.1843
     82  C          9.0200   11.9560   27.1370 C.2   181  CYS181      0.2625
     83  O         10.0200   12.4030   26.5750 O.2   181  CYS181     -0.2714
     84  CB         8.0780   11.6930   29.4500 C.3   181  CYS181      0.0997
     85  SG         6.3920   11.1110   29.0940 S.3   181  CYS181     -0.0797
     86  N          7.7980   12.0680   26.6290 N.am  182  GLN182     -0.1963
     87  CA         7.5560   12.7650   25.3710 C.3   182  GLN182      0.1733
     88  C          7.9550   14.2310   25.5080 C.2   182  GLN182      0.2616
     89  O          7.6700   14.8720   26.5270 O.2   182  GLN182     -0.2715
     90  CB         6.0840   12.6400   24.9770 C.3   182  GLN182      0.0408
     91  CG         5.6260   11.1940   24.8270 C.3   182  GLN182      0.0908
     92  CD         4.1270   11.0540   24.6720 C.2   182  GLN182      0.2608
     93  OE1        3.3810   11.1190   25.6510 O.2   182  GLN182     -0.2717
     94  NE2        3.6770   10.8430   23.4420 N.am  182  GLN182     -0.0878
     95  N          8.6410   14.7460   24.4940 N.am  183  GLY183     -0.1955
     96  CA         9.0840   16.1270   24.5290 C.3   183  GLY183      0.1869
     97  C         10.5290   16.2090   24.9750 C.2   183  GLY183      0.2309
     98  O         11.1350   17.2790   24.9470 O.2   183  GLY183     -0.2863
     99  N         12.6250   13.9670   23.6910 N.3   185  SER185     -0.1217
    100  CA        13.2620   13.3730   22.5270 C.3   185  SER185      0.1889
    101  C         14.3460   14.2640   21.9320 C.2   185  SER185      0.2288
    102  O         14.1220   15.4520   21.7040 O.2   185  SER185     -0.2866
    103  CB        12.1990   13.0730   21.4670 C.3   185  SER185      0.2089
    104  OG        11.1660   12.2470   21.9910 O.3   185  SER185     -0.2183
    105  N         17.9930   10.8750   24.0290 N.3   203  VAL203     -0.1231
    106  CA        16.6400   10.3670   24.2600 C.3   203  VAL203      0.1692
    107  C         15.9300    9.9990   22.9520 C.2   203  VAL203      0.2593
    108  O         15.5410   10.8730   22.1750 O.2   203  VAL203     -0.2718
    109  CB        15.7880   11.4050   25.0370 C.3   203  VAL203      0.0266
    110  CG1       14.4750   10.7840   25.4820 C.3   203  VAL203      0.0020
    111  CG2       16.5580   11.9430   26.2330 C.3   203  VAL203      0.0020
    112  N         15.7480    8.7070   22.7180 N.am  204  SER204     -0.1938
    113  CA        15.1010    8.2600   21.4950 C.3   204  SER204      0.2055
    114  C         13.6200    7.9700   21.6850 C.2   204  SER204      0.2643
    115  O         12.7700    8.7360   21.2160 O.2   204  SER204     -0.2714
    116  CB        15.8150    7.0290   20.9340 C.3   204  SER204      0.2130
    117  OG        15.3260    6.6930   19.6460 O.3   204  SER204     -0.2179
    118  N         13.3130    6.8850   22.3940 N.am  205  TRP205     -0.1959
    119  CA        11.9310    6.4830   22.6310 C.3   205  TRP205      0.1771
    120  C         11.7960    5.5580   23.8280 C.2   205  TRP205      0.2620
    121  O         12.7860    5.1840   24.4540 O.2   205  TRP205     -0.2715
    122  CB        11.3590    5.7900   21.3950 C.3   205  TRP205      0.0590
    123  CG        12.0660    4.5310   20.9860 C.ar  205  TRP205      0.0006
    124  CD1       13.1100    4.4340   20.1220 C.ar  205  TRP205      0.0946
    125  CD2       11.7640    3.1900   21.4020 C.ar  205  TRP205      0.0152
    126  NE1       13.4840    3.1240   19.9700 N.ar  205  TRP205     -0.2442
    127  CE2       12.6760    2.3360   20.7420 C.ar  205  TRP205      0.0810
    128  CE3       10.8100    2.6280   22.2650 C.ar  205  TRP205      0.0012
    129  CZ2       12.6660    0.9460   20.9170 C.ar  205  TRP205      0.0191
    130  CZ3       10.8010    1.2410   22.4380 C.ar  205  TRP205      0.0001
    131  CH2       11.7260    0.4190   21.7650 C.ar  205  TRP205      0.0015
    132  N         10.5590    5.1750   24.1150 N.am  206  GLY206     -0.1940
    133  CA        10.2650    4.2960   25.2310 C.3   206  GLY206      0.2014
    134  C          8.7820    3.9930   25.2020 C.2   206  GLY206      0.2639
    135  O          8.0190    4.6820   24.5120 O.2   206  GLY206     -0.2714
    136  N          8.3750    2.9440   25.9070 N.am  207  GLU207     -0.1963
    137  CA         6.9710    2.5500   25.9590 C.3   207  GLU207      0.1733
    138  C          6.3050    3.1870   27.1790 C.2   207  GLU207      0.2617
    139  O          6.3710    2.6650   28.2980 O.2   207  GLU207     -0.2715
    140  CB         6.8720    1.0270   25.9990 C.3   207  GLU207      0.0429
    141  CG         7.4680    0.3700   24.7630 C.3   207  GLU207      0.1163
    142  CD         8.1470   -0.9490   25.0640 C.2   207  GLU207      0.3649
    143  OE1        7.4470   -1.9790   25.0730 O.co2 207  GLU207     -0.2457
    144  OE2        9.3800   -0.9520   25.2850 O.co2 207  GLU207     -0.2457
    145  N          5.6570    4.3220   26.9480 N.am  208  GLY208     -0.1940
    146  CA         5.0270    5.0360   28.0380 C.3   208  GLY208      0.2014
    147  C          6.1450    5.7160   28.8010 C.2   208  GLY208      0.2639
    148  O          7.2960    5.6880   28.3680 O.2   208  GLY208     -0.2714
    149  N          5.8360    6.3110   29.9410 N.am  209  CYS209     -0.1967
    150  CA         6.8690    6.9830   30.7100 C.3   209  CYS209      0.1712
    151  C          6.8220    6.4650   32.1290 C.2   209  CYS209      0.2296
    152  O          5.7460    6.3290   32.7050 O.2   209  CYS209     -0.2864
    153  CB         6.6670    8.5000   30.6490 C.3   209  CYS209      0.0983
    154  SG         6.6320    9.1060   28.9310 S.3   209  CYS209     -0.0798
    155  N         11.7880    0.3790   30.3570 N.3   215  TYR215     -0.1227
    156  CA        12.8970    1.3010   30.5350 C.3   215  TYR215      0.1736
    157  C         12.8580    2.3100   29.3950 C.2   215  TYR215      0.2596
    158  O         12.2010    2.0800   28.3760 O.2   215  TYR215     -0.2718
    159  CB        14.2330    0.5520   30.4980 C.3   215  TYR215      0.0548
    160  CG        14.3620   -0.5640   31.5100 C.ar  215  TYR215     -0.0200
    161  CD1       14.5480   -0.2880   32.8600 C.ar  215  TYR215     -0.0009
    162  CD2       14.2800   -1.8960   31.1170 C.ar  215  TYR215     -0.0009
    163  CE1       14.6450   -1.3130   33.7960 C.ar  215  TYR215      0.0417
    164  CE2       14.3770   -2.9290   32.0440 C.ar  215  TYR215      0.0417
    165  CZ        14.5570   -2.6290   33.3810 C.ar  215  TYR215      0.1957
    166  OH        14.6370   -3.6410   34.3090 O.3   215  TYR215     -0.2866
    167  N         13.5250    3.4410   29.5830 N.am  216  GLY216     -0.1942
    168  CA        13.5770    4.4470   28.5410 C.3   216  GLY216      0.2014
    169  C         14.7490    4.0450   27.6720 C.2   216  GLY216      0.2639
    170  O         15.7830    3.6280   28.2030 O.2   216  GLY216     -0.2714
    171  N         14.5960    4.1060   26.3550 N.am  217  ILE217     -0.1963
    172  CA        15.6930    3.7150   25.4830 C.3   217  ILE217      0.1727
    173  C         16.3300    4.9230   24.7780 C.2   217  ILE217      0.2616
    174  O         15.6460    5.8880   24.4090 O.2   217  ILE217     -0.2715
    175  CB        15.2640    2.5720   24.5100 C.3   217  ILE217      0.0290
    176  CG1       14.6980    3.1220   23.2040 C.3   217  ILE217      0.0022
    177  CG2       14.2390    1.6580   25.1830 C.3   217  ILE217      0.0023
    178  CD1       15.7310    3.2260   22.0990 C.3   217  ILE217      0.0001
    179  N         17.6500    4.8760   24.6270 N.am  218  TYR218     -0.1974
    180  CA        18.4000    5.9660   24.0180 C.3   218  TYR218      0.1639
    181  C         19.2680    5.5200   22.8410 C.2   218  TYR218      0.2290
    182  O         19.5180    4.3280   22.6410 O.2   218  TYR218     -0.2864
    183  CB        19.3010    6.6350   25.0750 C.3   218  TYR218      0.0560
    184  CG        18.5790    7.0510   26.3430 C.ar  218  TYR218     -0.0198
    185  CD1       18.2840    8.3860   26.5950 C.ar  218  TYR218     -0.0009
    186  CD2       18.1460    6.1000   27.2620 C.ar  218  TYR218     -0.0009
    187  CE1       17.5660    8.7640   27.7260 C.ar  218  TYR218      0.0417
    188  CE2       17.4300    6.4670   28.3890 C.ar  218  TYR218      0.0417
    189  CZ        17.1390    7.7980   28.6160 C.ar  218  TYR218      0.1957
    190  OH        16.3960    8.1500   29.7210 O.3   218  TYR218     -0.2866
@<TRIPOS>BOND
     1    28    26   ar
     2    27    26   ar
     3    26    25    1
     4    25    24    1
     5    24    21    1
     6    11    12    1
     7    20    21    1
     8    20    13   am
     9    21    22    1
    10    34    33    1
    11    17    16    1
    12    17    18    1
    13    15    16    1
    14    15    12    1
    15    19    18    1
    16    35    33    1
    17    12    13    1
    18    22    23    2
    19    22    29   am
    20    13    14    2
    21    33    30    1
    22    29    30    1
    23    30    31    1
    24    36    31   am
    25    36    37    1
    26    31    32    2
    27     4     3    2
    28     2     1    1
    29     2     3    1
    30     2     5    1
    31    37    38    1
    32    37    40    1
    33     5     6    1
    34    38    39    2
    35    44    42   ar
    36    44    46   ar
    37    66    64    1
    38    42    41   ar
    39    47    46    1
    40    46    45   ar
    41    41    40    1
    42    41    43   ar
    43    65    63    1
    44    45    43   ar
    45     6     8   ar
    46     6     7   ar
    47    64    63    1
    48    63    60    1
    49     8    10   ar
    50     7     9   ar
    51    62    61    2
    52    60    59    1
    53    60    61    1
    54    54    56   ar
    55    54    53   ar
    56    10     9   ar
    57    56    58   ar
    58    59    50   am
    59   117   116    1
    60    52    53    1
    61    52    49    1
    62    53    55   ar
    63    58    57   ar
    64   126   124   ar
    65   126   127   ar
    66   124   123   ar
    67    50    49    1
    68    50    51    2
    69    49    48    1
    70   127   129   ar
    71   127   125   ar
    72    55    57   ar
    73   129   131   ar
    74   116   113    1
    75   123   122    1
    76   123   125   ar
    77   115   114    2
    78   122   119    1
    79   125   128   ar
    80   103   104    1
    81   103   100    1
    82   113   114    1
    83   113   112    1
    84   114   118   am
    85   102   101    2
    86   131   130   ar
    87   101   100    1
    88   178   176    1
    89   108   107    2
    90   128   130   ar
    91   118   119    1
    92   100    99    1
    93   119   120    1
    94   182   181    2
    95   112   107   am
    96   181   180    1
    97   107   106    1
    98   176   175    1
    99    94    92   am
   100   120   132   am
   101   120   121    2
   102   180   179    1
   103   180   183    1
   104   105   106    1
   105   132   133    1
   106   106   109    1
   107   174   173    2
   108    95    96    1
   109    95    88   am
   110   175   177    1
   111   175   172    1
   112   135   134    2
   113    96    97    1
   114   179   173   am
   115    92    91    1
   116    92    93    2
   117   141   142    1
   118   141   140    1
   119   173   172    1
   120    91    90    1
   121    98    97    2
   122    90    87    1
   123   109   110    1
   124   109   111    1
   125   142   143   ar
   126   142   144   ar
   127   183   184    1
   128   134   133    1
   129   134   136   am
   130    87    88    1
   131    87    86    1
   132   172   171    1
   133    88    89    2
   134   136   137    1
   135   137   140    1
   136   137   138    1
   137   184   185   ar
   138   184   186   ar
   139   171   169   am
   140    83    82    2
   141   185   187   ar
   142    86    82   am
   143   145   138   am
   144   145   146    1
   145    82    81    1
   146   138   139    2
   147   186   188   ar
   148   169   170    2
   149   169   168    1
   150   187   189   ar
   151   146   147    1
   152   148   147    2
   153   158   157    2
   154   188   189   ar
   155    81    80    1
   156    81    84    1
   157   168   167    1
   158   189   190    1
   159   147   149   am
   160   154    85    1
   161   154   153    1
   162    80    77   am
   163    85    84    1
   164   157   167   am
   165   157   156    1
   166    79    76    1
   167    77    78    2
   168    77    76    1
   169   149   150    1
   170   155   156    1
   171   159   156    1
   172   159   160    1
   173    76    75    1
   174   153   150    1
   175   150   151    1
   176    74    72   ar
   177   162   160   ar
   178   162   164   ar
   179    73    72   ar
   180    75    69   am
   181   160   161   ar
   182    72    71    1
   183   164   165   ar
   184   151   152    2
   185    69    70    2
   186    69    68    1
   187   161   163   ar
   188    71    68    1
   189   165   163   ar
   190   165   166    1
   191    68    67    1
