@<TRIPOS>MOLECULE
tmp/1g2oC00.pdb
 155 147 0 0 0
SMALL
GASTEIGER

@<TRIPOS>ATOM
      1  N         58.6250   54.8680   44.1480 N.3    30  SER30      -0.1217
      2  CA        60.0830   54.7800   44.0690 C.3    30  SER30       0.1889
      3  C         60.6550   55.6650   42.9670 C.2    30  SER30       0.2288
      4  O         60.2480   55.5710   41.8070 O.2    30  SER30      -0.2866
      5  CB        60.5240   53.3320   43.8330 C.3    30  SER30       0.2089
      6  OG        60.2930   52.5320   44.9830 O.3    30  SER30      -0.2183
      7  N         54.5600   48.5490   50.9720 N.3    84  HIS84      -0.1241
      8  CA        54.2190   47.5210   49.9930 C.3    84  HIS84       0.1621
      9  C         53.9140   46.1870   50.6550 C.2    84  HIS84       0.2264
     10  O         54.3810   45.9120   51.7590 O.2    84  HIS84      -0.2867
     11  CB        55.3870   47.3210   49.0250 C.3    84  HIS84       0.0745
     12  CG        55.9860   48.5960   48.5190 C.ar   84  HIS84       0.0817
     13  ND1       56.7300   49.4390   49.3170 N.ar   84  HIS84      -0.2268
     14  CD2       55.9660   49.1640   47.2890 C.ar   84  HIS84       0.1154
     15  CE1       57.1420   50.4700   48.6010 C.ar   84  HIS84       0.1986
     16  NE2       56.6920   50.3270   47.3680 N.ar   84  HIS84      -0.2212
     17  N         55.1370   43.4020   50.0520 N.3    86  TYR86      -0.1241
     18  CA        56.3570   42.6340   50.2970 C.3    86  TYR86       0.1605
     19  C         57.0350   42.9650   51.6210 C.2    86  TYR86       0.2264
     20  O         57.9720   42.2810   52.0350 O.2    86  TYR86      -0.2867
     21  CB        57.3570   42.7780   49.1330 C.3    86  TYR86       0.0534
     22  CG        57.7930   44.1870   48.7920 C.ar   86  TYR86      -0.0201
     23  CD1       58.5660   44.9380   49.6800 C.ar   86  TYR86      -0.0009
     24  CD2       57.4740   44.7510   47.5550 C.ar   86  TYR86      -0.0009
     25  CE1       59.0150   46.2170   49.3440 C.ar   86  TYR86       0.0417
     26  CE2       57.9160   46.0280   47.2080 C.ar   86  TYR86       0.0417
     27  CZ        58.6840   46.7560   48.1020 C.ar   86  TYR86       0.1957
     28  OH        59.1190   48.0180   47.7600 O.3    86  TYR86      -0.2866
     29  N         54.2330   55.2880   40.4390 N.3   113  ASN113     -0.1225
     30  CA        55.1450   54.2200   40.8120 C.3   113  ASN113      0.1785
     31  C         56.2890   54.1180   39.8220 C.2   113  ASN113      0.2597
     32  O         56.2970   54.8030   38.7940 O.2   113  ASN113     -0.2718
     33  CB        54.3960   52.8770   40.9350 C.3   113  ASN113      0.1169
     34  CG        53.8170   52.3770   39.6130 C.2   113  ASN113      0.2627
     35  OD1       52.6740   51.9040   39.5610 O.2   113  ASN113     -0.2716
     36  ND2       54.6030   52.4480   38.5530 N.am  113  ASN113     -0.0877
     37  N         57.2740   53.3010   40.1780 N.am  114  ALA114     -0.1979
     38  CA        58.4190   53.0300   39.3270 C.3   114  ALA114      0.1597
     39  C         58.0670   51.6640   38.7580 C.2   114  ALA114      0.2287
     40  O         57.6560   50.7690   39.5000 O.2   114  ALA114     -0.2864
     41  CB        59.6950   52.9430   40.1580 C.3   114  ALA114      0.0319
     42  N         58.9540   48.4950   35.5560 N.3   116  GLY116     -0.1225
     43  CA        59.8510   47.9920   34.5340 C.3   116  GLY116      0.1811
     44  C         59.0530   48.0390   33.2430 C.2   116  GLY116      0.2280
     45  O         57.8550   47.7410   33.2460 O.2   116  GLY116     -0.2866
     46  N         49.4160   47.8590   33.5460 N.3   174  TYR174     -0.1241
     47  CA        50.3410   47.5990   34.6480 C.3   174  TYR174      0.1605
     48  C         50.0900   46.2590   35.3460 C.2   174  TYR174      0.2264
     49  O         48.9780   45.9780   35.7850 O.2   174  TYR174     -0.2867
     50  CB        50.2120   48.7280   35.6730 C.3   174  TYR174      0.0534
     51  CG        51.0460   48.5620   36.9210 C.ar  174  TYR174     -0.0201
     52  CD1       52.3350   49.0900   37.0020 C.ar  174  TYR174     -0.0009
     53  CD2       50.5260   47.9200   38.0400 C.ar  174  TYR174     -0.0009
     54  CE1       53.0810   48.9930   38.1750 C.ar  174  TYR174      0.0417
     55  CE2       51.2580   47.8130   39.2100 C.ar  174  TYR174      0.0417
     56  CZ        52.5320   48.3540   39.2770 C.ar  174  TYR174      0.1957
     57  OH        53.2370   48.2770   40.4620 O.3   174  TYR174     -0.2866
     58  N         59.4890   40.8240   46.8790 N.3   180  PRO180     -0.2116
     59  CA        60.3550   41.9270   46.4590 C.3   180  PRO180      0.1372
     60  C         61.4310   41.5690   45.4270 C.2   180  PRO180      0.2244
     61  O         62.1530   42.4460   44.9560 O.2   180  PRO180     -0.2868
     62  CB        60.9560   42.3890   47.7770 C.3   180  PRO180      0.0268
     63  CG        61.1970   41.0760   48.4690 C.3   180  PRO180      0.0207
     64  CD        59.9200   40.2920   48.1880 C.3   180  PRO180      0.0892
     65  N         63.0240   40.8140   41.8900 N.3   182  TYR182     -0.1227
     66  CA        62.6670   41.2730   40.5540 C.3   182  TYR182      0.1736
     67  C         62.2720   40.0350   39.7510 C.2   182  TYR182      0.2595
     68  O         62.5120   38.9130   40.1890 O.2   182  TYR182     -0.2718
     69  CB        63.8470   41.9810   39.8860 C.3   182  TYR182      0.0548
     70  CG        64.0950   43.3800   40.4090 C.ar  182  TYR182     -0.0200
     71  CD1       65.2670   43.6870   41.0990 C.ar  182  TYR182     -0.0009
     72  CD2       63.1610   44.4020   40.2030 C.ar  182  TYR182     -0.0009
     73  CE1       65.5100   44.9750   41.5720 C.ar  182  TYR182      0.0417
     74  CE2       63.3940   45.6970   40.6720 C.ar  182  TYR182      0.0417
     75  CZ        64.5710   45.9760   41.3550 C.ar  182  TYR182      0.1957
     76  OH        64.8240   47.2430   41.8300 O.3   182  TYR182     -0.2866
     77  N         61.6730   40.2320   38.5790 N.am  183  GLU183     -0.1979
     78  CA        61.2310   39.1020   37.7590 C.3   183  GLU183      0.1602
     79  C         62.3460   38.4330   36.9650 C.2   183  GLU183      0.2287
     80  O         63.3600   39.0500   36.6450 O.2   183  GLU183     -0.2864
     81  CB        60.1530   39.5470   36.7570 C.3   183  GLU183      0.0415
     82  CG        58.9140   40.1920   37.3490 C.3   183  GLU183      0.1163
     83  CD        59.2100   41.5100   38.0250 C.2   183  GLU183      0.3649
     84  OE1       59.9660   42.3190   37.4440 O.co2 183  GLU183     -0.2457
     85  OE2       58.6790   41.7360   39.1290 O.co2 183  GLU183     -0.2457
     86  N         55.5220   46.5960   34.7590 N.3   199  VAL199     -0.1231
     87  CA        55.4990   45.6600   35.8810 C.3   199  VAL199      0.1692
     88  C         56.0240   46.3120   37.1530 C.2   199  VAL199      0.2593
     89  O         57.0490   46.9910   37.1410 O.2   199  VAL199     -0.2718
     90  CB        56.3210   44.3910   35.5790 C.3   199  VAL199      0.0266
     91  CG1       56.2630   43.4270   36.7660 C.3   199  VAL199      0.0020
     92  CG2       55.7620   43.7120   34.3530 C.3   199  VAL199      0.0020
     93  N         55.3070   46.1090   38.2530 N.am  200  GLY200     -0.1942
     94  CA        55.7130   46.6890   39.5160 C.3   200  GLY200      0.2014
     95  C         55.2550   45.8230   40.6670 C.2   200  GLY200      0.2639
     96  O         54.6550   44.7700   40.4470 O.2   200  GLY200     -0.2714
     97  N         55.5190   46.2720   41.8910 N.am  201  MET201     -0.1963
     98  CA        55.1510   45.5150   43.0870 C.3   201  MET201      0.1736
     99  C         54.2600   46.3120   44.0370 C.2   201  MET201      0.2617
    100  O         54.3580   46.1720   45.2580 O.2   201  MET201     -0.2715
    101  CB        56.4150   45.0910   43.8360 C.3   201  MET201      0.0427
    102  CG        57.5040   44.5130   42.9540 C.3   201  MET201      0.0599
    103  SD        59.0580   44.3800   43.8610 S.3   201  MET201     -0.1393
    104  CE        60.0810   43.4920   42.6690 C.3   201  MET201      0.0692
    105  N         53.3850   47.1410   43.4810 N.am  202  SER202     -0.1950
    106  CA        52.4940   47.9530   44.3030 C.3   202  SER202      0.1924
    107  C         51.2650   48.3010   43.4920 C.2   202  SER202      0.2314
    108  O         50.8850   47.5790   42.5720 O.2   202  SER202     -0.2863
    109  CB        53.1810   49.2660   44.6860 C.3   202  SER202      0.2116
    110  OG        53.3900   50.0820   43.5270 O.3   202  SER202     -0.2180
    111  N         61.4320   53.1640   35.0560 N.3   224  THR224     -0.1203
    112  CA        62.7320   53.3560   35.6860 C.3   224  THR224      0.1994
    113  C         63.7840   52.3850   35.1810 C.2   224  THR224      0.2617
    114  O         64.9700   52.5380   35.4770 O.2   224  THR224     -0.2717
    115  CB        62.6350   53.1950   37.2150 C.3   224  THR224      0.1784
    116  OG1       61.9480   51.9760   37.5250 O.3   224  THR224     -0.2211
    117  CG2       61.8950   54.3770   37.8360 C.3   224  THR224      0.0376
    118  N         63.3440   51.3930   34.4190 N.am  225  ASN225     -0.1974
    119  CA        64.2360   50.3720   33.8840 C.3   225  ASN225      0.1688
    120  C         63.4620   49.5190   32.8950 C.2   225  ASN225      0.2292
    121  O         62.2370   49.4600   32.9570 O.2   225  ASN225     -0.2864
    122  CB        64.7230   49.4640   35.0150 C.3   225  ASN225      0.1181
    123  CG        63.5710   48.7830   35.7510 C.2   225  ASN225      0.2629
    124  OD1       62.9120   49.3880   36.6010 O.2   225  ASN225     -0.2716
    125  ND2       63.3170   47.5230   35.4150 N.am  225  ASN225     -0.0877
    126  N         62.2340   45.9670   31.6220 N.3   227  ALA227     -0.1245
    127  CA        61.9760   44.7150   32.3330 C.3   227  ALA227      0.1562
    128  C         63.1170   43.7140   32.2160 C.2   227  ALA227      0.2260
    129  O         63.8970   43.7520   31.2640 O.2   227  ALA227     -0.2867
    130  CB        60.6780   44.0920   31.8330 C.3   227  ALA227      0.0290
    131  N         68.9020   44.1930   37.1350 N.3   235  LEU235     -0.1245
    132  CA        68.1370   45.3000   37.6880 C.3   235  LEU235      0.1561
    133  C         68.6780   45.6450   39.0680 C.2   235  LEU235      0.2260
    134  O         69.1910   44.7810   39.7770 O.2   235  LEU235     -0.2867
    135  CB        66.6550   44.9270   37.7770 C.3   235  LEU235      0.0270
    136  CG        66.0110   44.4760   36.4640 C.3   235  LEU235      0.0019
    137  CD1       64.5140   44.2910   36.6750 C.3   235  LEU235      0.0001
    138  CD2       66.2690   45.5030   35.3720 C.3   235  LEU235      0.0001
    139  N         67.7390   48.4290   42.5060 N.3   237  HIS237     -0.1241
    140  CA        66.8620   49.4370   43.0900 C.3   237  HIS237      0.1621
    141  C         67.5490   50.7990   43.1390 C.2   237  HIS237      0.2264
    142  O         66.9100   51.8230   42.9150 O.2   237  HIS237     -0.2867
    143  CB        66.4220   49.0220   44.4970 C.3   237  HIS237      0.0745
    144  CG        65.4540   49.9730   45.1320 C.ar  237  HIS237      0.0817
    145  ND1       64.2290   50.2720   44.5750 N.ar  237  HIS237     -0.2268
    146  CD2       65.5280   50.6840   46.2810 C.ar  237  HIS237      0.1154
    147  CE1       63.5890   51.1240   45.3560 C.ar  237  HIS237      0.1986
    148  NE2       64.3560   51.3900   46.3980 N.ar  237  HIS237     -0.2212
    149  N         67.1020   52.2610   39.9870 N.3   240  VAL240     -0.1245
    150  CA        65.7110   52.6680   39.7990 C.3   240  VAL240      0.1561
    151  C         65.5570   54.0680   40.3920 C.2   240  VAL240      0.2260
    152  O         64.9400   54.9470   39.7890 O.2   240  VAL240     -0.2867
    153  CB        64.7280   51.7110   40.5220 C.3   240  VAL240      0.0252
    154  CG1       63.3240   52.3310   40.5690 C.3   240  VAL240      0.0019
    155  CG2       64.6780   50.3780   39.7960 C.3   240  VAL240      0.0019
@<TRIPOS>BOND
     1   129   128    2
     2   126   127    1
     3   130   127    1
     4   128   127    1
     5   120   121    2
     6   120   119    1
     7    44    45    2
     8    44    43    1
     9    46    47    1
    10   119   118    1
    11   119   122    1
    12    92    90    1
    13   118   113   am
    14    43    42    1
    15    47    48    1
    16    47    50    1
    17    86    87    1
    18   122   123    1
    19   111   112    1
    20   113   114    2
    21   113   112    1
    22    48    49    2
    23   138   136    1
    24   125   123   am
    25    90    87    1
    26    90    91    1
    27    50    51    1
    28   112   115    1
    29   123   124    2
    30    87    88    1
    31   136   137    1
    32   136   135    1
    33    80    79    2
    34    81    82    1
    35    81    78    1
    36    51    52   ar
    37    51    53   ar
    38    79    78    1
    39    52    54   ar
    40   131   132    1
    41    89    88    2
    42    88    93   am
    43   115   116    1
    44   115   117    1
    45    82    83    1
    46    84    83   ar
    47   132   135    1
    48   132   133    1
    49    78    77    1
    50    83    85   ar
    51    53    55   ar
    52    54    56   ar
    53    93    94    1
    54    36    34   am
    55    77    67   am
    56    39    38    1
    57    39    40    2
    58    32    31    2
    59   133   134    2
    60    55    56   ar
    61    56    57    1
    62    38    41    1
    63    38    37    1
    64    94    95    1
    65    35    34    2
    66    34    33    1
    67    67    68    2
    68    67    66    1
    69   152   151    2
    70   155   153    1
    71   150   149    1
    72   150   151    1
    73   150   153    1
    74    31    37   am
    75    31    30    1
    76    69    70    1
    77    69    66    1
    78    72    70   ar
    79    72    74   ar
    80    70    71   ar
    81    29    30    1
    82    96    95    2
    83   153   154    1
    84    66    65    1
    85    95    97   am
    86    74    75   ar
    87    30    33    1
    88    71    73   ar
    89    75    73   ar
    90    75    76    1
    91     4     3    2
    92    97    98    1
    93   139   140    1
    94   108   107    2
    95   104   103    1
    96   142   141    2
    97   102   101    1
    98   102   103    1
    99     3     2    1
   100    98   101    1
   101    98    99    1
   102   140   141    1
   103   140   143    1
   104   105    99   am
   105   105   106    1
   106   107   106    1
   107   110   109    1
   108     5     2    1
   109     5     6    1
   110    99   100    2
   111     2     1    1
   112   106   109    1
   113   143   144    1
   114   145   144   ar
   115   145   147   ar
   116    61    60    2
   117   144   146   ar
   118   147   148   ar
   119    60    59    1
   120   146   148   ar
   121    59    58    1
   122    59    62    1
   123    58    64    1
   124    26    24   ar
   125    26    27   ar
   126    14    16   ar
   127    14    12   ar
   128    16    15   ar
   129    24    22   ar
   130    28    27    1
   131    62    63    1
   132    27    25   ar
   133    64    63    1
   134    12    11    1
   135    12    13   ar
   136    15    13   ar
   137    22    21    1
   138    22    23   ar
   139    11     8    1
   140    21    18    1
   141    25    23   ar
   142     8     9    1
   143     8     7    1
   144    17    18    1
   145    18    19    1
   146     9    10    2
   147    19    20    2
