@<TRIPOS>MOLECULE
tmp/1g2vH01.pdb
 140 131 0 0 0
SMALL
GASTEIGER

@<TRIPOS>ATOM
      1  N         -2.8170   27.6570  112.9420 N.3     7  LEU7       -0.1245
      2  CA        -1.5250   27.3790  112.4080 C.3     7  LEU7        0.1561
      3  C         -1.2290   26.0160  112.8580 C.2     7  LEU7        0.2260
      4  O         -0.7480   25.8880  113.9740 O.2     7  LEU7       -0.2867
      5  CB        -0.5000   28.3380  113.0550 C.3     7  LEU7        0.0270
      6  CG         0.8440   28.4190  112.3330 C.3     7  LEU7        0.0019
      7  CD1        0.5690   28.6020  110.8760 C.3     7  LEU7        0.0001
      8  CD2        1.6970   29.5890  112.7850 C.3     7  LEU7        0.0001
      9  N          0.9660   23.5490  111.5340 N.3     9  GLY9       -0.1210
     10  CA         2.0520   22.9330  110.8490 C.3     9  GLY9        0.1956
     11  C          3.0990   22.5900  111.8780 C.2     9  GLY9        0.2612
     12  O          2.8420   22.0410  112.9600 O.2     9  GLY9       -0.2717
     13  N          4.3110   22.8910  111.4970 N.am   10  GLY10      -0.1942
     14  CA         5.4310   22.6060  112.3340 C.3    10  GLY10       0.2014
     15  C          6.0450   21.2930  111.8850 C.2    10  GLY10       0.2640
     16  O          5.4030   20.4800  111.2180 O.2    10  GLY10      -0.2714
     17  N          7.3010   21.0910  112.2420 N.am   11  SER11      -0.1935
     18  CA         7.9500   19.8230  111.9590 C.3    11  SER11       0.2055
     19  C          7.7070   18.8550  113.1230 C.2    11  SER11       0.2644
     20  O          7.7740   17.6700  112.9470 O.2    11  SER11      -0.2714
     21  CB         9.4420   20.0510  111.7010 C.3    11  SER11       0.2130
     22  OG         9.8940   21.1870  112.4270 O.3    11  SER11      -0.2179
     23  N          7.4210   19.3480  114.3240 N.am   12  GLY12      -0.1939
     24  CA         7.0780   18.4640  115.4370 C.3    12  GLY12       0.2014
     25  C          8.1820   17.6000  115.9920 C.2    12  GLY12       0.2640
     26  O          7.9040   16.5800  116.6560 O.2    12  GLY12      -0.2714
     27  N          9.4410   18.0060  115.7850 N.am   13  THR13      -0.1936
     28  CA        10.5950   17.2170  116.3050 C.3    13  THR13       0.2028
     29  C         10.6990   16.8740  117.8270 C.2    13  THR13       0.2642
     30  O         11.2540   15.8160  118.1900 O.2    13  THR13      -0.2714
     31  CB        11.9500   17.8600  115.9020 C.3    13  THR13       0.1808
     32  OG1       12.1230   19.1150  116.5860 O.3    13  THR13      -0.2208
     33  CG2       11.9810   18.2200  114.4420 C.3    13  THR13       0.0379
     34  N         10.2820   17.7300  118.7310 N.am   14  ARG14      -0.1963
     35  CA        10.4540   17.3230  120.1370 C.3    14  ARG14       0.1729
     36  C          9.6780   16.0290  120.4460 C.2    14  ARG14       0.2616
     37  O          9.9970   15.2950  121.4120 O.2    14  ARG14      -0.2715
     38  CB         9.9800   18.3720  121.1250 C.3    14  ARG14       0.0348
     39  CG        10.6610   19.6860  121.0350 C.3    14  ARG14       0.0492
     40  CD        10.0400   20.7090  121.8930 C.3    14  ARG14       0.2205
     41  NE         9.0610   21.5750  121.2420 N.pl3  14  ARG14      -0.0865
     42  CZ         8.2730   22.3980  121.9380 C.cat  14  ARG14       0.5346
     43  NH1        8.3150   22.4190  123.2690 N.pl3  14  ARG14       0.1354
     44  NH2        7.4120   23.1770  121.3280 N.pl3  14  ARG14       0.1354
     45  N          8.6430   15.7520  119.6530 N.am   15  LEU15      -0.1977
     46  CA         7.9180   14.5430  119.8600 C.3    15  LEU15       0.1596
     47  C          8.4410   13.3430  119.1060 C.2    15  LEU15       0.2287
     48  O          7.8960   12.2680  119.2520 O.2    15  LEU15      -0.2864
     49  CB         6.4670   14.7690  119.5360 C.3    15  LEU15       0.0297
     50  CG         5.9430   15.9590  120.3400 C.3    15  LEU15       0.0022
     51  CD1        4.4820   16.0220  120.3810 C.3    15  LEU15       0.0001
     52  CD2        6.3920   15.8720  121.7230 C.3    15  LEU15       0.0001
     53  N          1.6970   16.4340  114.7630 N.3    24  LYS24      -0.1231
     54  CA         1.3360   16.6090  116.1680 C.3    24  LYS24       0.1693
     55  C         -0.1120   17.0220  116.3640 C.2    24  LYS24       0.2591
     56  O         -0.7500   16.5860  117.3000 O.2    24  LYS24      -0.2718
     57  CB         2.1920   17.7330  116.7630 C.3    24  LYS24       0.0285
     58  CG         1.7270   18.1920  118.0760 C.3    24  LYS24       0.0035
     59  CD         2.7790   19.0380  118.8090 C.3    24  LYS24       0.0206
     60  CE         3.3540   20.1020  117.8920 C.3    24  LYS24       0.1093
     61  NZ         4.1300   21.2140  118.6240 N.3    24  LYS24      -0.1314
     62  N         -0.6280   17.8880  115.5010 N.am   25  GLN25      -0.1979
     63  CA        -1.9930   18.3390  115.6290 C.3    25  GLN25       0.1601
     64  C         -3.0500   17.3250  115.2480 C.2    25  GLN25       0.2287
     65  O         -4.2120   17.6270  115.3660 O.2    25  GLN25      -0.2864
     66  CB        -2.2060   19.6170  114.8680 C.3    25  GLN25       0.0394
     67  CG        -1.5070   20.8010  115.4750 C.3    25  GLN25       0.0908
     68  CD        -0.0380   20.9100  115.1110 C.2    25  GLN25       0.2608
     69  OE1        0.3630   20.7780  113.9710 O.2    25  GLN25      -0.2717
     70  NE2        0.7570   21.1630  116.1010 N.am   25  GLN25      -0.0878
     71  N          1.8490   25.5760  104.3930 N.3    81  GLN81      -0.1245
     72  CA         3.0140   26.3580  104.7410 C.3    81  GLN81       0.1566
     73  C          4.1460   25.4870  104.3100 C.2    81  GLN81       0.2260
     74  O          4.4870   24.5680  105.0040 O.2    81  GLN81      -0.2867
     75  CB         3.0960   26.6370  106.2340 C.3    81  GLN81       0.0367
     76  CG         4.3450   27.3670  106.6240 C.3    81  GLN81       0.0905
     77  CD         4.4050   27.8110  108.0820 C.2    81  GLN81       0.2608
     78  OE1        3.9000   27.1420  108.9930 O.2    81  GLN81      -0.2717
     79  NE2        5.0090   28.9540  108.3000 N.am   81  GLN81      -0.0878
     80  N          8.3110   25.5560  107.9680 N.3    84  PRO84      -0.2116
     81  CA         7.9550   26.1750  109.2510 C.3    84  PRO84       0.1372
     82  C          8.8390   27.3590  109.5400 C.2    84  PRO84       0.2244
     83  O          9.6720   27.3300  110.4190 O.2    84  PRO84      -0.2868
     84  CB         8.2940   25.0990  110.2720 C.3    84  PRO84       0.0268
     85  CG         8.9210   24.0240  109.5450 C.3    84  PRO84       0.0207
     86  CD         9.1500   24.3700  108.1320 C.3    84  PRO84       0.0892
     87  N          8.0120   30.4680  110.6370 N.3    86  GLY86      -0.1210
     88  CA         7.6370   31.4440  111.6410 C.3    86  GLY86       0.1956
     89  C          6.1400   31.6340  111.7860 C.2    86  GLY86       0.2611
     90  O          5.4300   31.5680  110.7670 O.2    86  GLY86      -0.2717
     91  N          5.6640   31.8860  113.0210 N.am   87  LEU87      -0.1979
     92  CA         4.2630   32.0550  113.2030 C.3    87  LEU87       0.1596
     93  C          3.7540   33.2220  112.3600 C.2    87  LEU87       0.2287
     94  O          2.6870   33.1460  111.7870 O.2    87  LEU87      -0.2864
     95  CB         3.8980   32.1820  114.6620 C.3    87  LEU87       0.0297
     96  CG         4.5530   31.0830  115.5220 C.3    87  LEU87       0.0022
     97  CD1        4.3430   31.2830  116.9900 C.3    87  LEU87       0.0001
     98  CD2        4.0450   29.6930  115.1720 C.3    87  LEU87       0.0001
     99  N         -2.6390   28.8290  117.7940 N.3   107  LEU107     -0.1231
    100  CA        -1.7290   27.7690  117.4700 C.3   107  LEU107      0.1693
    101  C         -2.4060   26.4420  117.6200 C.2   107  LEU107      0.2593
    102  O         -3.1600   26.1770  118.5390 O.2   107  LEU107     -0.2718
    103  CB        -0.5160   27.8150  118.3450 C.3   107  LEU107      0.0284
    104  CG         0.2960   29.1420  118.2680 C.3   107  LEU107      0.0019
    105  CD1        1.7460   28.9380  118.8940 C.3   107  LEU107      0.0001
    106  CD2        0.4000   29.6880  116.8910 C.3   107  LEU107      0.0001
    107  N         -2.1440   25.5830  116.6670 N.am  108  GLY108     -0.1942
    108  CA        -2.7650   24.2880  116.6890 C.3   108  GLY108      0.2014
    109  C         -2.4770   23.3630  117.8690 C.2   108  GLY108      0.2638
    110  O         -3.1940   22.3810  118.0120 O.2   108  GLY108     -0.2714
    111  N         -1.4310   23.6160  118.6640 N.am  109  ASP109     -0.1971
    112  CA        -1.0910   22.7350  119.7750 C.3   109  ASP109      0.1709
    113  C         -1.3770   23.3680  121.1160 C.2   109  ASP109      0.2293
    114  O         -0.8450   22.9650  122.1290 O.2   109  ASP109     -0.2864
    115  CB         0.3710   22.2740  119.6710 C.3   109  ASP109      0.1436
    116  CG         1.3470   23.3570  119.9040 C.2   109  ASP109      0.3671
    117  OD1        0.9100   24.4380  120.1950 O.co2 109  ASP109     -0.2456
    118  OD2        2.5800   23.2790  119.8760 O.co2 109  ASP109     -0.2456
    119  N         11.7410   33.9080  123.6850 N.3   161  LYS161     -0.1245
    120  CA        12.7010   32.9590  124.2340 C.3   161  LYS161      0.1561
    121  C         13.9700   33.5990  124.7040 C.2   161  LYS161      0.2260
    122  O         15.0160   33.2960  124.1840 O.2   161  LYS161     -0.2867
    123  CB        13.0700   31.9080  123.1980 C.3   161  LYS161      0.0271
    124  CG        11.9000   30.9850  122.7750 C.3   161  LYS161      0.0035
    125  CD        12.1170   30.1540  121.4950 C.3   161  LYS161      0.0206
    126  CE        11.1520   28.9450  121.4960 C.3   161  LYS161      0.1093
    127  NZ        10.6930   28.3540  120.1940 N.3   161  LYS161     -0.1314
    128  N         13.2340   33.0250  112.1640 N.3   195  GLU195     -0.1245
    129  CA        11.8130   32.9130  111.9560 C.3   195  GLU195      0.1567
    130  C         11.2500   34.3060  111.7560 C.2   195  GLU195      0.2260
    131  O         11.8870   35.2990  112.1400 O.2   195  GLU195     -0.2867
    132  CB        11.1300   32.3120  113.1590 C.3   195  GLU195      0.0388
    133  CG        11.7830   31.0620  113.7070 C.3   195  GLU195      0.1160
    134  CD        11.3250   29.7720  113.0350 C.2   195  GLU195      0.3649
    135  OE1       10.3430   29.7710  112.2270 O.co2 195  GLU195     -0.2457
    136  OE2       11.9760   28.7440  113.3400 O.co2 195  GLU195     -0.2457
    137  N          3.5100   20.4830  123.6420 N.3   226  GLY226     -0.1225
    138  CA         4.8090   20.5040  123.0020 C.3   226  GLY226      0.1811
    139  C          5.7050   19.2840  123.2230 C.2   226  GLY226      0.2280
    140  O          6.4360   18.9260  122.3160 O.2   226  GLY226     -0.2866
@<TRIPOS>BOND
     1    73    72    1
     2    73    74    2
     3    71    72    1
     4    72    75    1
     5    75    76    1
     6    76    77    1
     7    80    86    1
     8    80    81    1
     9    77    79   am
    10    77    78    2
    11    86    85    1
    12    81    82    1
    13    81    84    1
    14    82    83    2
    15    85    84    1
    16    87    88    1
    17    90    89    2
    18    10     9    1
    19    10    11    1
    20     7     6    1
    21    16    15    2
    22    13    11   am
    23    13    14    1
    24    88    89    1
    25    21    18    1
    26    21    22    1
    27   130   129    1
    28   130   131    2
    29    89    91   am
    30    94    93    2
    31    11    12    2
    32    15    17   am
    33    15    14    1
    34   129   128    1
    35   129   132    1
    36    18    17    1
    37    18    19    1
    38   135   134   ar
    39     6     8    1
    40     6     5    1
    41    93    92    1
    42     2     3    1
    43     2     1    1
    44     2     5    1
    45     3     4    2
    46    20    19    2
    47    91    92    1
    48   134   136   ar
    49   134   133    1
    50    19    23   am
    51   132   133    1
    52    92    95    1
    53    69    68    2
    54    23    24    1
    55    33    31    1
    56    95    96    1
    57    53    54    1
    58    66    67    1
    59    66    63    1
    60    68    67    1
    61    68    70   am
    62    98    96    1
    63    64    65    2
    64    64    63    1
    65    24    25    1
    66    62    63    1
    67    62    55   am
    68    96    97    1
    69    27    25   am
    70    27    28    1
    71    31    28    1
    72    31    32    1
    73    25    26    2
    74    54    55    1
    75    54    57    1
    76    28    29    1
    77    55    56    2
    78   107   108    1
    79   107   101   am
    80   108   109    1
    81    57    58    1
    82   106   104    1
    83   100   101    1
    84   100    99    1
    85   100   103    1
    86   101   102    2
    87    29    30    2
    88    29    34   am
    89   109   110    2
    90   109   111   am
    91    60    61    1
    92    60    59    1
    93    58    59    1
    94   104   103    1
    95   104   105    1
    96   111   112    1
    97    34    35    1
    98    47    48    2
    99    47    46    1
   100    49    46    1
   101    49    50    1
   102    45    46    1
   103    45    36   am
   104   115   112    1
   105   115   116    1
   106   112   113    1
   107   118   116   ar
   108   116   117   ar
   109    35    36    1
   110    35    38    1
   111   127   126    1
   112    50    51    1
   113    50    52    1
   114    36    37    2
   115    39    38    1
   116    39    40    1
   117   113   114    2
   118    41    40    1
   119    41    42    2
   120    44    42    1
   121   125   126    1
   122   125   124    1
   123    42    43    1
   124   140   139    2
   125   124   123    1
   126   138   139    1
   127   138   137    1
   128   123   120    1
   129   119   120    1
   130   122   121    2
   131   120   121    1
