@<TRIPOS>MOLECULE
tmp/1g2vH02.pdb
 157 156 0 0 0
SMALL
GASTEIGER

@<TRIPOS>ATOM
      1  N        -12.1960   24.7450  118.6160 N.3    40  SER40      -0.1217
      2  CA       -13.3070   25.1130  119.4850 C.3    40  SER40       0.1889
      3  C        -13.0350   26.4640  120.1340 C.2    40  SER40       0.2288
      4  O        -13.9400   27.1970  120.4220 O.2    40  SER40      -0.2866
      5  CB       -13.5610   24.0640  120.5510 C.3    40  SER40       0.2089
      6  OG       -12.5460   24.1590  121.5410 O.3    40  SER40      -0.2183
      7  N        -15.6660   29.4330  119.9710 N.3    44  LEU44      -0.1245
      8  CA       -16.2330   30.1270  121.1100 C.3    44  LEU44       0.1561
      9  C        -15.9860   31.6440  121.0470 C.2    44  LEU44       0.2260
     10  O        -16.6310   32.3590  121.7690 O.2    44  LEU44      -0.2867
     11  CB       -15.7200   29.5660  122.3900 C.3    44  LEU44       0.0270
     12  CG       -16.1840   28.1460  122.5700 C.3    44  LEU44       0.0019
     13  CD1      -15.0260   27.4550  123.3850 C.3    44  LEU44       0.0001
     14  CD2      -17.5480   27.9840  123.2150 C.3    44  LEU44       0.0001
     15  N         -6.8570   25.6480  125.6840 N.3   112  TYR112     -0.1227
     16  CA        -7.3470   26.5150  126.7420 C.3   112  TYR112      0.1736
     17  C         -8.5760   25.9100  127.4490 C.2   112  TYR112      0.2595
     18  O         -9.4210   25.2690  126.8260 O.2   112  TYR112     -0.2718
     19  CB        -7.7760   27.8740  126.1400 C.3   112  TYR112      0.0548
     20  CG        -6.6490   28.6180  125.4820 C.ar  112  TYR112     -0.0200
     21  CD1       -6.3480   28.4190  124.1860 C.ar  112  TYR112     -0.0009
     22  CD2       -5.8160   29.4780  126.2020 C.ar  112  TYR112     -0.0009
     23  CE1       -5.2780   29.0750  123.5900 C.ar  112  TYR112      0.0417
     24  CE2       -4.7530   30.1360  125.6070 C.ar  112  TYR112      0.0417
     25  CZ        -4.4820   29.9280  124.3030 C.ar  112  TYR112      0.1957
     26  OH        -3.4000   30.5620  123.6700 O.3   112  TYR112     -0.2866
     27  N         -8.7120   26.2060  128.7340 N.am  113  TYR113     -0.1962
     28  CA        -9.8790   25.8170  129.4630 C.3   113  TYR113      0.1774
     29  C        -10.1340   26.6470  130.6740 C.2   113  TYR113      0.2659
     30  O         -9.2150   26.9050  131.4560 O.2   113  TYR113     -0.2711
     31  CB        -9.7370   24.4260  129.9790 C.3   113  TYR113      0.0574
     32  CG       -11.0560   23.8610  130.3700 C.ar  113  TYR113     -0.0198
     33  CD1      -11.9330   23.5130  129.4260 C.ar  113  TYR113     -0.0009
     34  CD2      -11.3990   23.7000  131.6400 C.ar  113  TYR113     -0.0009
     35  CE1      -13.1140   23.0040  129.7390 C.ar  113  TYR113      0.0417
     36  CE2      -12.5790   23.2020  131.9690 C.ar  113  TYR113      0.0417
     37  CZ       -13.4460   22.8570  131.0090 C.ar  113  TYR113      0.1957
     38  OH       -14.6960   22.3450  131.2680 O.3   113  TYR113     -0.2866
     39  N        -11.3910   27.0300  130.8570 N.am  114  GLY114     -0.1716
     40  CA       -11.7840   27.7050  132.0530 C.2   114  GLY114      0.1480
     41  C        -13.0940   28.4980  132.0730 C.2   114  GLY114      0.2820
     42  O        -13.6760   28.9030  131.0860 O.2   114  GLY114     -0.2669
     43  N        -13.5670   28.7140  133.2820 N.am  115  HIS115     -0.1925
     44  CA       -14.7780   29.4350  133.4750 C.3   115  HIS115      0.1790
     45  C        -14.7480   30.8270  132.9180 C.2   115  HIS115      0.2620
     46  O        -13.7660   31.5470  133.0850 O.2   115  HIS115     -0.2715
     47  CB       -14.9950   29.5700  134.8910 C.3   115  HIS115      0.0785
     48  CG       -16.2630   30.2350  135.1960 C.ar  115  HIS115      0.0821
     49  ND1      -17.4640   29.6610  134.8960 N.ar  115  HIS115     -0.2267
     50  CD2      -16.5340   31.4190  135.7740 C.ar  115  HIS115      0.1154
     51  CE1      -18.4330   30.4530  135.3040 C.ar  115  HIS115      0.1986
     52  NE2      -17.8940   31.5250  135.8330 N.ar  115  HIS115     -0.2212
     53  N        -15.8320   31.1950  132.2520 N.am  116  ASP116     -0.1957
     54  CA       -15.9610   32.4400  131.5460 C.3   116  ASP116      0.1840
     55  C        -14.9350   32.6170  130.4320 C.2   116  ASP116      0.2622
     56  O        -14.6540   33.7100  130.0080 O.2   116  ASP116     -0.2715
     57  CB       -15.8490   33.6320  132.4710 C.3   116  ASP116      0.1450
     58  CG       -17.2050   34.0860  132.9970 C.2   116  ASP116      0.3671
     59  OD1      -18.0460   33.1700  133.2050 O.co2 116  ASP116     -0.2456
     60  OD2      -17.5090   35.2980  133.2360 O.co2 116  ASP116     -0.2456
     61  N        -14.3740   31.5450  129.9420 N.am  117  PHE117     -0.1960
     62  CA       -13.3560   31.6990  128.9680 C.3   117  PHE117      0.1771
     63  C        -13.9990   32.4380  127.8920 C.2   117  PHE117      0.2620
     64  O        -13.4400   33.3650  127.3300 O.2   117  PHE117     -0.2715
     65  CB       -12.9390   30.3850  128.4370 C.3   117  PHE117      0.0574
     66  CG       -11.8950   30.4870  127.4410 C.ar  117  PHE117     -0.0200
     67  CD1      -10.7920   31.2810  127.6670 C.ar  117  PHE117     -0.0042
     68  CD2      -11.9810   29.7370  126.2900 C.ar  117  PHE117     -0.0042
     69  CE1       -9.8120   31.3660  126.7690 C.ar  117  PHE117     -0.0003
     70  CE2      -11.0250   29.7910  125.3740 C.ar  117  PHE117     -0.0003
     71  CZ        -9.9050   30.6270  125.6080 C.ar  117  PHE117     -0.0000
     72  N        -15.2320   32.0660  127.5910 N.am  118  HIS118     -0.1959
     73  CA       -15.8400   32.7050  126.4210 C.3   118  HIS118      0.1787
     74  C        -16.1580   34.1660  126.6030 C.2   118  HIS118      0.2620
     75  O        -16.3020   34.8950  125.6540 O.2   118  HIS118     -0.2715
     76  CB       -16.9940   31.9020  125.8950 C.3   118  HIS118      0.0785
     77  CG       -18.2980   32.6150  125.8290 C.ar  118  HIS118      0.0821
     78  ND1      -19.4820   31.9120  125.7210 N.ar  118  HIS118     -0.2267
     79  CD2      -18.6340   33.9310  125.8460 C.ar  118  HIS118      0.1154
     80  CE1      -20.4950   32.7640  125.6990 C.ar  118  HIS118      0.1986
     81  NE2      -20.0070   33.9970  125.7600 N.ar  118  HIS118     -0.2212
     82  N        -16.2420   34.6370  127.8170 N.am  119  GLU119     -0.1977
     83  CA       -16.4630   36.0470  127.9730 C.3   119  GLU119      0.1602
     84  C        -15.1050   36.7120  127.7310 C.2   119  GLU119      0.2287
     85  O        -15.0000   37.8250  127.2260 O.2   119  GLU119     -0.2864
     86  CB       -17.0380   36.3550  129.3720 C.3   119  GLU119      0.0415
     87  CG       -18.5540   35.9860  129.6300 C.3   119  GLU119      0.1163
     88  CD       -18.9990   34.4580  129.5360 C.2   119  GLU119      0.3649
     89  OE1      -18.3530   33.5580  128.8890 O.co2 119  GLU119     -0.2457
     90  OE2      -20.0890   34.1440  130.1230 O.co2 119  GLU119     -0.2457
     91  N        -18.2110   17.0740  127.7750 N.3   248  LYS248     -0.1231
     92  CA       -16.9950   16.8050  127.0480 C.3   248  LYS248      0.1693
     93  C        -16.4290   18.0710  126.7050 C.2   248  LYS248      0.2592
     94  O        -17.1950   19.0030  126.6000 O.2   248  LYS248     -0.2718
     95  CB       -17.3270   15.9360  125.8300 C.3   248  LYS248      0.0285
     96  CG       -17.5680   14.4590  126.2830 C.3   248  LYS248      0.0035
     97  CD       -17.9850   13.5340  125.2090 C.3   248  LYS248      0.0206
     98  CE       -17.5950   12.1080  125.5840 C.3   248  LYS248      0.1093
     99  NZ       -17.2740   12.0000  127.0360 N.3   248  LYS248     -0.1314
    100  N        -15.1130   18.1770  126.6310 N.am  249  VAL249     -0.1966
    101  CA       -14.4540   19.4850  126.3080 C.3   249  VAL249      0.1727
    102  C        -14.1390   19.6060  124.8370 C.2   249  VAL249      0.2616
    103  O        -13.6580   18.6780  124.2070 O.2   249  VAL249     -0.2715
    104  CB       -13.1250   19.7030  127.0890 C.3   249  VAL249      0.0290
    105  CG1      -12.5000   20.9970  126.6610 C.3   249  VAL249      0.0023
    106  CG2      -13.3370   19.7470  128.6040 C.3   249  VAL249      0.0023
    107  N        -14.3850   20.7760  124.2870 N.am  250  ALA250     -0.1963
    108  CA       -14.0870   21.0460  122.8840 C.3   250  ALA250      0.1728
    109  C        -14.6380   19.9560  121.9280 C.2   250  ALA250      0.2616
    110  O        -13.9730   19.3370  121.0780 O.2   250  ALA250     -0.2715
    111  CB       -12.6510   21.2150  122.6940 C.3   250  ALA250      0.0334
    112  N        -15.8950   19.7640  122.0180 N.am  251  CYS251     -0.1968
    113  CA       -16.5520   18.9380  121.0680 C.3   251  CYS251      0.1712
    114  C        -17.3150   19.8760  120.1510 C.2   251  CYS251      0.2296
    115  O        -18.3570   20.3710  120.4990 O.2   251  CYS251     -0.2864
    116  CB       -17.4310   17.9120  121.8140 C.3   251  CYS251      0.0983
    117  SG       -18.8880   17.4200  120.9280 S.3   251  CYS251     -0.0798
    118  N        -21.1440   20.0290  119.6530 N.3   254  GLU254     -0.1231
    119  CA       -21.8670   20.6020  120.7590 C.3   254  GLU254      0.1699
    120  C        -21.8210   22.1140  120.6490 C.2   254  GLU254      0.2592
    121  O        -22.8650   22.7490  120.6600 O.2   254  GLU254     -0.2718
    122  CB       -21.3610   20.0860  122.1070 C.3   254  GLU254      0.0402
    123  CG       -21.8440   20.9150  123.2880 C.3   254  GLU254      0.1161
    124  CD       -21.4930   20.2860  124.6220 C.2   254  GLU254      0.3649
    125  OE1      -20.7800   19.2670  124.5960 O.co2 254  GLU254     -0.2457
    126  OE2      -21.9270   20.7720  125.6690 O.co2 254  GLU254     -0.2457
    127  N        -20.6440   22.6690  120.4550 N.am  255  ILE255     -0.1980
    128  CA       -20.4910   24.1010  120.4720 C.3   255  ILE255      0.1595
    129  C        -21.3210   24.6950  119.3600 C.2   255  ILE255      0.2287
    130  O        -22.0980   25.6660  119.5720 O.2   255  ILE255     -0.2864
    131  CB       -19.0270   24.4650  120.4040 C.3   255  ILE255      0.0276
    132  CG1      -18.4210   24.1880  121.7710 C.3   255  ILE255      0.0022
    133  CG2      -18.8550   25.9010  120.1890 C.3   255  ILE255      0.0022
    134  CD1      -16.9790   24.0280  121.8090 C.3   255  ILE255      0.0001
    135  N        -24.7680   24.6580  120.4730 N.3   258  ARG258     -0.1245
    136  CA       -25.1090   25.6270  121.5020 C.3   258  ARG258      0.1563
    137  C        -25.1450   27.0300  120.9480 C.2   258  ARG258      0.2260
    138  O        -26.0180   27.7880  121.3130 O.2   258  ARG258     -0.2867
    139  CB       -24.2220   25.4950  122.7340 C.3   258  ARG258      0.0307
    140  CG       -24.2130   24.0980  123.2380 C.3   258  ARG258      0.0489
    141  CD       -23.3340   23.8750  124.3530 C.3   258  ARG258      0.2205
    142  NE       -23.9200   24.6200  125.4100 N.pl3 258  ARG258     -0.0865
    143  CZ       -24.8420   24.1300  126.2060 C.cat 258  ARG258      0.5346
    144  NH1      -25.1930   22.8300  126.0700 N.pl3 258  ARG258      0.1354
    145  NH2      -25.3400   24.9330  127.1740 N.pl3 258  ARG258      0.1354
    146  N        -26.8390   23.8330  131.7960 N.3   292  TYR292     -0.1241
    147  CA       -26.6260   25.2650  131.9730 C.3   292  TYR292      0.1605
    148  C        -25.1610   25.6550  131.7700 C.2   292  TYR292      0.2264
    149  O        -24.8670   26.8300  131.4770 O.2   292  TYR292     -0.2867
    150  CB       -27.1240   25.6810  133.3000 C.3   292  TYR292      0.0534
    151  CG       -28.5260   25.2200  133.4660 C.ar  292  TYR292     -0.0201
    152  CD1      -28.8160   24.0050  134.1270 C.ar  292  TYR292     -0.0009
    153  CD2      -29.5860   25.9940  132.9810 C.ar  292  TYR292     -0.0009
    154  CE1      -30.1320   23.5920  134.3110 C.ar  292  TYR292      0.0417
    155  CE2      -30.9070   25.5490  133.1300 C.ar  292  TYR292      0.0417
    156  CZ       -31.1580   24.3390  133.8200 C.ar  292  TYR292      0.1957
    157  OH       -32.4160   23.8610  134.0190 O.3   292  TYR292     -0.2866
@<TRIPOS>BOND
     1     1     2    1
     2   129   130    2
     3   129   128    1
     4     2     3    1
     5     2     5    1
     6   118   119    1
     7     7     8    1
     8     3     4    2
     9   114   115    2
    10   114   113    1
    11   133   131    1
    12   131   128    1
    13   131   132    1
    14   127   128    1
    15   127   120   am
    16   135   136    1
    17     5     6    1
    18   120   121    2
    19   120   119    1
    20   119   122    1
    21   117   116    1
    22   137   138    2
    23   137   136    1
    24     9     8    1
    25     9    10    2
    26   113   116    1
    27   113   112    1
    28   110   109    2
    29     8    11    1
    30   136   139    1
    31   132   134    1
    32   109   112   am
    33   109   108    1
    34   122   123    1
    35    11    12    1
    36    12    14    1
    37    12    13    1
    38   111   108    1
    39   139   140    1
    40   108   107    1
    41   140   141    1
    42   123   124    1
    43    23    21   ar
    44    23    25   ar
    45    26    25    1
    46    21    20   ar
    47   103   102    2
    48   107   102   am
    49    25    24   ar
    50   141   142    1
    51   125   124   ar
    52   124   126   ar
    53   102   101    1
    54    97    98    1
    55    97    96    1
    56    70    71   ar
    57    70    68   ar
    58   142   143    2
    59    20    19    1
    60    20    22   ar
    61    98    99    1
    62    24    22   ar
    63    71    69   ar
    64    75    74    2
    65    15    16    1
    66    80    78   ar
    67    80    81   ar
    68    78    77   ar
    69    81    79   ar
    70    77    79   ar
    71    77    76    1
    72    95    96    1
    73    95    92    1
    74    76    73    1
    75   144   143    1
    76    19    16    1
    77   143   145    1
    78    68    66   ar
    79   101   100    1
    80   101   104    1
    81    73    74    1
    82    73    72    1
    83    94    93    2
    84    74    82   am
    85   100    93   am
    86   105   104    1
    87    93    92    1
    88    16    17    1
    89    69    67   ar
    90    18    17    2
    91    92    91    1
    92   104   106    1
    93    85    84    2
    94    64    63    2
    95    66    67   ar
    96    66    65    1
    97    17    27   am
    98    72    63   am
    99    84    83    1
   100    82    83    1
   101    63    62    1
   102    83    86    1
   103    65    62    1
   104    27    28    1
   105    89    88   ar
   106    62    61    1
   107    86    87    1
   108    33    35   ar
   109    33    32   ar
   110    28    31    1
   111    28    29    1
   112    88    87    1
   113    88    90   ar
   114    35    37   ar
   115    61    55   am
   116    31    32    1
   117    56    55    2
   118    32    34   ar
   119    55    54    1
   120    29    39    1
   121    29    30    2
   122    39    40    2
   123    37    38    1
   124    37    36   ar
   125    42    41    2
   126   149   148    2
   127    54    53    1
   128    54    57    1
   129    34    36   ar
   130   148   147    1
   131   146   147    1
   132   147   150    1
   133    40    41    1
   134    41    43   am
   135    53    45   am
   136    57    58    1
   137    45    46    2
   138    45    44    1
   139   153   155   ar
   140   153   151   ar
   141    58    59   ar
   142    58    60   ar
   143   155   156   ar
   144    43    44    1
   145   150   151    1
   146   151   152   ar
   147    44    47    1
   148   156   157    1
   149   156   154   ar
   150   152   154   ar
   151    47    48    1
   152    49    48   ar
   153    49    51   ar
   154    48    50   ar
   155    51    52   ar
   156    50    52   ar
