@<TRIPOS>MOLECULE
tmp/1g30B01.pdb
 192 193 0 0 0
SMALL
GASTEIGER

@<TRIPOS>ATOM
      1  N         22.7660   -6.5400   18.3250 N.3    43  HIS43      -0.1241
      2  CA        22.5820   -7.9190   17.8690 C.3    43  HIS43       0.1621
      3  C         21.8830   -8.0310   16.5110 C.2    43  HIS43       0.2264
      4  O         21.8730   -9.1020   15.9020 O.2    43  HIS43      -0.2867
      5  CB        21.8180   -8.7450   18.9240 C.3    43  HIS43       0.0745
      6  CG        20.3250   -8.5920   18.8710 C.ar   43  HIS43       0.0817
      7  ND1       19.6140   -7.8630   19.7980 N.ar   43  HIS43      -0.2268
      8  CD2       19.4050   -9.1140   18.0240 C.ar   43  HIS43       0.1154
      9  CE1       18.3230   -7.9450   19.5310 C.ar   43  HIS43       0.1986
     10  NE2       18.1690   -8.6980   18.4570 N.ar   43  HIS43      -0.2212
     11  N         25.8940  -10.5340   15.3690 N.3    47  TYR47      -0.1241
     12  CA        25.5880  -11.6220   16.2850 C.3    47  TYR47       0.1605
     13  C         26.1520  -12.9450   15.7400 C.2    47  TYR47       0.2264
     14  O         25.4170  -13.7810   15.1770 O.2    47  TYR47      -0.2867
     15  CB        24.0880  -11.7370   16.5450 C.3    47  TYR47       0.0534
     16  CG        23.7880  -12.5780   17.7630 C.ar   47  TYR47      -0.0201
     17  CD1       24.3850  -12.2880   18.9950 C.ar   47  TYR47      -0.0009
     18  CD2       22.9410  -13.6820   17.6830 C.ar   47  TYR47      -0.0009
     19  CE1       24.1440  -13.0850   20.1200 C.ar   47  TYR47       0.0417
     20  CE2       22.6920  -14.4820   18.7950 C.ar   47  TYR47       0.0417
     21  CZ        23.2980  -14.1810   20.0080 C.ar   47  TYR47       0.1957
     22  OH        23.0810  -14.9980   21.0900 O.3    47  TYR47      -0.2866
     23  N         24.6300  -16.5630   15.4900 N.3    50  TRP50      -0.1241
     24  CA        23.5910  -16.7320   14.4730 C.3    50  TRP50       0.1605
     25  C         24.1250  -16.3570   13.0900 C.2    50  TRP50       0.2264
     26  O         23.3520  -16.1180   12.1600 O.2    50  TRP50      -0.2867
     27  CB        22.3710  -15.8650   14.7920 C.3    50  TRP50       0.0550
     28  CG        21.5470  -16.3330   15.9430 C.ar   50  TRP50       0.0003
     29  CD1       21.6860  -17.5000   16.6340 C.ar   50  TRP50       0.0946
     30  CD2       20.4470  -15.6370   16.5430 C.ar   50  TRP50       0.0152
     31  NE1       20.7410  -17.5740   17.6310 N.ar   50  TRP50      -0.2442
     32  CE2       19.9680  -16.4430   17.5990 C.ar   50  TRP50       0.0810
     33  CE3       19.8200  -14.4080   16.2910 C.ar   50  TRP50       0.0012
     34  CZ2       18.8920  -16.0620   18.4060 C.ar   50  TRP50       0.0191
     35  CZ3       18.7480  -14.0280   17.0940 C.ar   50  TRP50       0.0001
     36  CH2       18.2970  -14.8570   18.1400 C.ar   50  TRP50       0.0015
     37  N         29.2020  -13.3640   26.3530 N.3    94  GLU94      -0.1231
     38  CA        28.5480  -13.8690   27.5450 C.3    94  GLU94       0.1699
     39  C         27.0580  -13.6320   27.6570 C.2    94  GLU94       0.2592
     40  O         26.3140  -14.5890   27.8660 O.2    94  GLU94      -0.2718
     41  CB        29.2140  -13.3860   28.8370 C.3    94  GLU94       0.0402
     42  CG        28.7540  -14.2030   30.0620 C.3    94  GLU94       0.1161
     43  CD        28.8760  -13.4700   31.3960 C.2    94  GLU94       0.3649
     44  OE1       29.8800  -12.7440   31.6090 O.co2  94  GLU94      -0.2457
     45  OE2       27.9580  -13.6380   32.2380 O.co2  94  GLU94      -0.2457
     46  N         26.6000  -12.3900   27.5060 N.am   95  ASN95      -0.1960
     47  CA        25.1730  -12.1510   27.7070 C.3    95  ASN95       0.1819
     48  C         24.4110  -11.0080   27.0250 C.2    95  ASN95       0.2621
     49  O         23.4060  -10.5350   27.5730 O.2    95  ASN95      -0.2715
     50  CB        24.9190  -12.0370   29.2110 C.3    95  ASN95       0.1195
     51  CG        25.6690  -10.8810   29.8330 C.2    95  ASN95       0.2630
     52  OD1       26.6190  -10.3440   29.2440 O.2    95  ASN95      -0.2716
     53  ND2       25.2600  -10.4970   31.0360 N.am   95  ASN95      -0.0877
     54  N         24.8140  -10.6050   25.8280 N.am   96  LEU96      -0.1977
     55  CA        24.1380   -9.5050   25.1370 C.3    96  LEU96       0.1596
     56  C         24.1200   -8.2440   25.9970 C.2    96  LEU96       0.2287
     57  O         23.1150   -7.5380   26.0500 O.2    96  LEU96      -0.2864
     58  CB        22.6940   -9.8650   24.7630 C.3    96  LEU96       0.0297
     59  CG        22.4140  -10.6660   23.5010 C.3    96  LEU96       0.0022
     60  CD1       20.9840  -10.4210   23.0980 C.3    96  LEU96       0.0001
     61  CD2       23.3400  -10.2390   22.3870 C.3    96  LEU96       0.0001
     62  N         20.0110  -16.8900   33.2640 N.3   172  ILE172     -0.1245
     63  CA        20.9160  -15.9160   32.6410 C.3   172  ILE172      0.1561
     64  C         21.2670  -14.8240   33.6560 C.2   172  ILE172      0.2260
     65  O         20.4050  -14.3790   34.4170 O.2   172  ILE172     -0.2867
     66  CB        20.2520  -15.1840   31.4220 C.3   172  ILE172      0.0252
     67  CG1       19.6590  -16.1730   30.4110 C.3   172  ILE172      0.0019
     68  CG2       21.2520  -14.2540   30.7580 C.3   172  ILE172      0.0019
     69  CD1       20.6630  -17.0050   29.6850 C.3   172  ILE172      0.0001
     70  N          4.0310   -9.8950   24.7560 N.3   192  ASP192     -0.1225
     71  CA         5.4830   -9.8530   24.7790 C.3   192  ASP192      0.1805
     72  C          5.9500   -9.5750   23.3540 C.2   192  ASP192      0.2598
     73  O          5.1410   -9.5310   22.4200 O.2   192  ASP192     -0.2718
     74  CB         5.9960  -11.2290   25.2710 C.3   192  ASP192      0.1424
     75  CG         7.5120  -11.2890   25.5080 C.2   192  ASP192      0.3668
     76  OD1        8.1890  -10.2550   25.6160 O.co2 192  ASP192     -0.2456
     77  OD2        8.0410  -12.4210   25.5910 O.co2 192  ASP192     -0.2456
     78  N          7.2310   -9.2610   23.2210 N.am  193  ALA193     -0.1966
     79  CA         7.8490   -9.0630   21.9300 C.3   193  ALA193      0.1728
     80  C          8.1730  -10.4930   21.4550 C.2   193  ALA193      0.2616
     81  O          8.0640  -11.4560   22.2250 O.2   193  ALA193     -0.2715
     82  CB         9.1260   -8.2680   22.0890 C.3   193  ALA193      0.0334
     83  N          8.5680  -10.6390   20.2000 N.am  194  CYS194     -0.1954
     84  CA         8.9040  -11.9530   19.6790 C.3   194  CYS194      0.1843
     85  C          9.8750  -11.7770   18.5280 C.2   194  CYS194      0.2625
     86  O         10.3240  -10.6570   18.2670 O.2   194  CYS194     -0.2714
     87  CB         7.6390  -12.7050   19.2330 C.3   194  CYS194      0.0997
     88  SG         7.8590  -14.5200   19.0960 S.3   194  CYS194     -0.0797
     89  N         10.2030  -12.8750   17.8490 N.am  195  GLU195     -0.1977
     90  CA        11.1330  -12.8410   16.7240 C.3   195  GLU195      0.1602
     91  C         10.6610  -11.8060   15.7080 C.2   195  GLU195      0.2287
     92  O          9.4780  -11.7500   15.3740 O.2   195  GLU195     -0.2864
     93  CB        11.2220  -14.2160   16.0620 C.3   195  GLU195      0.0415
     94  CG        12.3500  -14.3420   15.0410 C.3   195  GLU195      0.1163
     95  CD        12.3110  -15.6500   14.2570 C.2   195  GLU195      0.3649
     96  OE1       12.7000  -15.6360   13.0650 O.co2 195  GLU195     -0.2457
     97  OE2       11.8930  -16.6880   14.8280 O.co2 195  GLU195     -0.2457
     98  N         12.8910   -7.6260   17.8210 N.3   198  SER198     -0.1217
     99  CA        14.1270   -7.1630   18.4490 C.3   198  SER198      0.1889
    100  C         14.7440   -5.9960   17.7070 C.2   198  SER198      0.2288
    101  O         14.6860   -5.9310   16.4760 O.2   198  SER198     -0.2866
    102  CB        15.1290   -8.2980   18.6340 C.3   198  SER198      0.2089
    103  OG        15.3950   -8.9580   17.4230 O.3   198  SER198     -0.2183
    104  N         14.1660   -3.7390   22.4350 N.3   218  VAL218     -0.1231
    105  CA        13.9150   -5.1810   22.5410 C.3   218  VAL218      0.1692
    106  C         15.2560   -5.8930   22.3360 C.2   218  VAL218      0.2593
    107  O         15.8690   -5.7980   21.2620 O.2   218  VAL218     -0.2718
    108  CB        12.8770   -5.6600   21.4990 C.3   218  VAL218      0.0266
    109  CG1       12.6200   -7.1700   21.6430 C.3   218  VAL218      0.0020
    110  CG2       11.5780   -4.8900   21.6610 C.3   218  VAL218      0.0020
    111  N         15.7190   -6.5830   23.3770 N.am  219  SER219     -0.1938
    112  CA        17.0160   -7.2450   23.3420 C.3   219  SER219      0.2055
    113  C         17.0030   -8.7620   23.2900 C.2   219  SER219      0.2643
    114  O         17.5920   -9.3560   22.3890 O.2   219  SER219     -0.2714
    115  CB        17.8660   -6.7750   24.5240 C.3   219  SER219      0.2130
    116  OG        19.1700   -7.3140   24.4660 O.3   219  SER219     -0.2179
    117  N         16.3930   -9.3960   24.2800 N.am  220  TRP220     -0.1959
    118  CA        16.3470  -10.8480   24.3020 C.3   220  TRP220      0.1771
    119  C         15.1730  -11.3960   25.0700 C.2   220  TRP220      0.2620
    120  O         14.4290  -10.6590   25.7210 O.2   220  TRP220     -0.2715
    121  CB        17.6700  -11.4610   24.7930 C.3   220  TRP220      0.0590
    122  CG        18.0940  -11.1250   26.2050 C.ar  220  TRP220      0.0006
    123  CD1       18.8180  -10.0370   26.6100 C.ar  220  TRP220      0.0946
    124  CD2       17.8860  -11.9290   27.3820 C.ar  220  TRP220      0.0152
    125  NE1       19.0810  -10.1140   27.9590 N.ar  220  TRP220     -0.2442
    126  CE2       18.5210  -11.2640   28.4590 C.ar  220  TRP220      0.0810
    127  CE3       17.2290  -13.1440   27.6300 C.ar  220  TRP220      0.0012
    128  CZ2       18.5200  -11.7760   29.7690 C.ar  220  TRP220      0.0191
    129  CZ3       17.2260  -13.6560   28.9330 C.ar  220  TRP220      0.0001
    130  CH2       17.8680  -12.9680   29.9840 C.ar  220  TRP220      0.0015
    131  N         14.9620  -12.6960   24.9160 N.am  221  GLY221     -0.1940
    132  CA        13.8710  -13.3590   25.5940 C.3   221  GLY221      0.2014
    133  C         14.0280  -14.8430   25.3690 C.2   221  GLY221      0.2639
    134  O         14.7240  -15.2690   24.4480 O.2   221  GLY221     -0.2714
    135  N         13.4400  -15.6210   26.2640 N.am  222  GLU222     -0.1963
    136  CA        13.4680  -17.0690   26.1860 C.3   222  GLU222      0.1733
    137  C         12.0700  -17.4450   25.7310 C.2   222  GLU222      0.2617
    138  O         11.1230  -17.4610   26.5210 O.2   222  GLU222     -0.2715
    139  CB        13.8180  -17.6560   27.5580 C.3   222  GLU222      0.0429
    140  CG        15.2220  -17.2440   28.0030 C.3   222  GLU222      0.1163
    141  CD        15.5390  -17.5780   29.4490 C.2   222  GLU222      0.3649
    142  OE1       14.7710  -17.1760   30.3440 O.co2 222  GLU222     -0.2457
    143  OE2       16.5820  -18.2160   29.6940 O.co2 222  GLU222     -0.2457
    144  N         11.9430  -17.7040   24.4340 N.am  223  GLY223     -0.1940
    145  CA        10.6470  -18.0170   23.8760 C.3   223  GLY223      0.2014
    146  C          9.9130  -16.7010   23.7090 C.2   223  GLY223      0.2639
    147  O         10.5490  -15.6430   23.6590 O.2   223  GLY223     -0.2714
    148  N          8.5900  -16.7570   23.6210 N.am  224  CYS224     -0.1967
    149  CA         7.7790  -15.5560   23.4690 C.3   224  CYS224      0.1712
    150  C          6.5100  -15.7290   24.2670 C.2   224  CYS224      0.2296
    151  O          5.7980  -16.7220   24.0950 O.2   224  CYS224     -0.2864
    152  CB         7.3930  -15.3060   21.9990 C.3   224  CYS224      0.0983
    153  SG         8.7660  -15.0440   20.8440 S.3   224  CYS224     -0.0798
    154  N         10.0570  -13.1860   30.9870 N.3   230  TYR230     -0.1227
    155  CA         9.8730  -11.7750   30.6820 C.3   230  TYR230      0.1736
    156  C         10.7620  -11.3550   29.5220 C.2   230  TYR230      0.2596
    157  O         11.7750  -12.0010   29.2360 O.2   230  TYR230     -0.2718
    158  CB        10.1960  -10.9250   31.9140 C.3   230  TYR230      0.0548
    159  CG         9.3620  -11.3030   33.1150 C.ar  230  TYR230     -0.0200
    160  CD1        9.8040  -12.2730   34.0270 C.ar  230  TYR230     -0.0009
    161  CD2        8.0980  -10.7500   33.3010 C.ar  230  TYR230     -0.0009
    162  CE1        8.9950  -12.6830   35.0820 C.ar  230  TYR230      0.0417
    163  CE2        7.2910  -11.1510   34.3490 C.ar  230  TYR230      0.0417
    164  CZ         7.7420  -12.1170   35.2290 C.ar  230  TYR230      0.1957
    165  OH         6.9010  -12.5210   36.2260 O.3   230  TYR230     -0.2866
    166  N         10.3550  -10.2950   28.8320 N.am  231  GLY231     -0.1942
    167  CA        11.1450   -9.7920   27.7340 C.3   231  GLY231      0.2014
    168  C         12.2020   -8.9000   28.3420 C.2   231  GLY231      0.2639
    169  O         11.9310   -8.1910   29.3150 O.2   231  GLY231     -0.2714
    170  N         13.4230   -8.9930   27.8370 N.am  232  PHE232     -0.1959
    171  CA        14.5030   -8.1680   28.3360 C.3   232  PHE232      0.1771
    172  C         14.8020   -7.0500   27.3640 C.2   232  PHE232      0.2619
    173  O         14.7280   -7.2270   26.1380 O.2   232  PHE232     -0.2715
    174  CB        15.7270   -9.0030   28.6630 C.3   232  PHE232      0.0574
    175  CG        15.6040   -9.7270   29.9710 C.ar  232  PHE232     -0.0200
    176  CD1       14.7500  -10.8210   30.0990 C.ar  232  PHE232     -0.0042
    177  CD2       16.2800   -9.2630   31.1000 C.ar  232  PHE232     -0.0042
    178  CE1       14.5620  -11.4430   31.3410 C.ar  232  PHE232     -0.0003
    179  CE2       16.1000   -9.8730   32.3400 C.ar  232  PHE232     -0.0003
    180  CZ        15.2390  -10.9640   32.4590 C.ar  232  PHE232     -0.0000
    181  N         15.1340   -5.8960   27.9270 N.am  233  TYR233     -0.1974
    182  CA        15.3760   -4.6980   27.1550 C.3   233  TYR233      0.1639
    183  C         16.6590   -3.9820   27.5060 C.2   233  TYR233      0.2290
    184  O         17.0750   -3.9570   28.6620 O.2   233  TYR233     -0.2864
    185  CB        14.2020   -3.7360   27.3610 C.3   233  TYR233      0.0560
    186  CG        12.8530   -4.3290   27.0120 C.ar  233  TYR233     -0.0198
    187  CD1       12.1980   -5.2030   27.8850 C.ar  233  TYR233     -0.0009
    188  CD2       12.2460   -4.0420   25.7870 C.ar  233  TYR233     -0.0009
    189  CE1       10.9710   -5.7780   27.5400 C.ar  233  TYR233      0.0417
    190  CE2       11.0310   -4.6070   25.4360 C.ar  233  TYR233      0.0417
    191  CZ        10.3960   -5.4740   26.3070 C.ar  233  TYR233      0.1957
    192  OH         9.1950   -6.0330   25.9270 O.3   233  TYR233     -0.2866
@<TRIPOS>BOND
     1    26    25    2
     2    96    95   ar
     3    25    24    1
     4    95    97   ar
     5    95    94    1
     6    24    27    1
     7    24    23    1
     8    27    28    1
     9    94    93    1
    10    14    13    2
    11    11    12    1
    12    92    91    2
    13    91    90    1
    14    13    12    1
    15     4     3    2
    16    28    30   ar
    17    28    29   ar
    18    93    90    1
    19    12    15    1
    20    33    30   ar
    21    33    35   ar
    22   101   100    2
    23     3     2    1
    24    30    32   ar
    25    15    16    1
    26    29    31   ar
    27    90    89    1
    28    35    36   ar
    29   103   102    1
    30    32    31   ar
    31    32    34   ar
    32    18    16   ar
    33    18    20   ar
    34   100    99    1
    35    16    17   ar
    36    98    99    1
    37    89    85   am
    38     2     1    1
    39     2     5    1
    40     8    10   ar
    41     8     6   ar
    42    36    34   ar
    43    86    85    2
    44    99   102    1
    45    10     9   ar
    46    85    84    1
    47    20    21   ar
    48     6     5    1
    49     6     7   ar
    50    17    19   ar
    51    88    87    1
    52    88   153    1
    53    87    84    1
    54     9     7   ar
    55    84    83    1
    56    21    19   ar
    57    21    22    1
    58    83    80   am
    59   153   152    1
    60   107   106    2
    61    80    79    1
    62    80    81    2
    63   108   109    1
    64   108   110    1
    65   108   105    1
    66    79    82    1
    67    79    78    1
    68   152   149    1
    69   106   105    1
    70   106   111   am
    71    61    59    1
    72   114   113    2
    73    73    72    2
    74   104   105    1
    75    60    59    1
    76    78    72   am
    77   113   112    1
    78   113   117   am
    79   112   111    1
    80   112   115    1
    81    72    71    1
    82   149   148    1
    83   149   150    1
    84    59    58    1
    85   148   146   am
    86   147   146    2
    87   146   145    1
    88   145   144    1
    89   151   150    2
    90   117   118    1
    91   118   121    1
    92   118   119    1
    93   144   137   am
    94   134   133    2
    95   116   115    1
    96    70    71    1
    97    58    55    1
    98    71    74    1
    99   121   122    1
   100   131   119   am
   101   131   132    1
   102   119   120    2
   103    55    54    1
   104    55    56    1
   105    74    75    1
   106   133   132    1
   107   133   135   am
   108   190   188   ar
   109   190   191   ar
   110    75    77   ar
   111    75    76   ar
   112   137   136    1
   113   137   138    2
   114   188   186   ar
   115    54    48   am
   116   192   191    1
   117    56    57    2
   118   173   172    2
   119   136   135    1
   120   136   139    1
   121   122   123   ar
   122   122   124   ar
   123   191   189   ar
   124    37    38    1
   125   123   125   ar
   126   186   185    1
   127   186   187   ar
   128    48    49    2
   129    48    47    1
   130   182   185    1
   131   182   183    1
   132   182   181    1
   133   172   181   am
   134   172   171    1
   135   124   127   ar
   136   124   126   ar
   137   183   184    2
   138    46    39   am
   139    46    47    1
   140   189   187   ar
   141    38    39    1
   142    38    41    1
   143   139   140    1
   144   127   129   ar
   145    39    40    2
   146    47    50    1
   147   167   168    1
   148   167   166    1
   149   170   171    1
   150   170   168   am
   151   125   126   ar
   152   140   141    1
   153   171   174    1
   154   168   169    2
   155   126   128   ar
   156   174   175    1
   157   166   156   am
   158    41    42    1
   159   129   130   ar
   160    50    51    1
   161   157   156    2
   162    52    51    2
   163   141   143   ar
   164   141   142   ar
   165   156   155    1
   166    69    67    1
   167   128   130   ar
   168    51    53   am
   169   175   176   ar
   170   175   177   ar
   171    42    43    1
   172   176   178   ar
   173    67    66    1
   174   155   154    1
   175   155   158    1
   176    68    66    1
   177   177   179   ar
   178   178   180   ar
   179    43    44   ar
   180    43    45   ar
   181    66    63    1
   182   158   159    1
   183   179   180   ar
   184    63    62    1
   185    63    64    1
   186   159   161   ar
   187   159   160   ar
   188   161   163   ar
   189    64    65    2
   190   160   162   ar
   191   163   164   ar
   192   162   164   ar
   193   164   165    1
