@<TRIPOS>MOLECULE
tmp/1g32B01.pdb
 192 193 0 0 0
SMALL
GASTEIGER

@<TRIPOS>ATOM
      1  N         22.6820   -6.5730   18.3730 N.3    43  HIS43      -0.1241
      2  CA        22.4810   -7.9530   17.9320 C.3    43  HIS43       0.1621
      3  C         21.7990   -8.0790   16.5620 C.2    43  HIS43       0.2264
      4  O         21.8500   -9.1320   15.9230 O.2    43  HIS43      -0.2867
      5  CB        21.7260   -8.7660   19.0050 C.3    43  HIS43       0.0745
      6  CG        20.2300   -8.6640   18.9310 C.ar   43  HIS43       0.0817
      7  ND1       19.4820   -7.9330   19.8300 N.ar   43  HIS43      -0.2268
      8  CD2       19.3350   -9.2690   18.1110 C.ar   43  HIS43       0.1154
      9  CE1       18.1960   -8.0990   19.5760 C.ar   43  HIS43       0.1986
     10  NE2       18.0810   -8.9030   18.5350 N.ar   43  HIS43      -0.2212
     11  N         26.0570  -10.5590   15.4350 N.3    47  TYR47      -0.1241
     12  CA        25.7340  -11.6450   16.3500 C.3    47  TYR47       0.1605
     13  C         26.2530  -12.9800   15.8100 C.2    47  TYR47       0.2264
     14  O         25.4880  -13.7840   15.2500 O.2    47  TYR47      -0.2867
     15  CB        24.2320  -11.7330   16.6170 C.3    47  TYR47       0.0534
     16  CG        23.9050  -12.5730   17.8330 C.ar   47  TYR47      -0.0201
     17  CD1       24.4410  -12.2570   19.0880 C.ar   47  TYR47      -0.0009
     18  CD2       23.0920  -13.7010   17.7280 C.ar   47  TYR47      -0.0009
     19  CE1       24.1760  -13.0500   20.2090 C.ar   47  TYR47       0.0417
     20  CE2       22.8210  -14.4970   18.8420 C.ar   47  TYR47       0.0417
     21  CZ        23.3710  -14.1670   20.0750 C.ar   47  TYR47       0.1957
     22  OH        23.1430  -14.9820   21.1520 O.3    47  TYR47      -0.2866
     23  N         24.6580  -16.6160   15.4700 N.3    50  TRP50      -0.1241
     24  CA        23.6730  -16.7980   14.4090 C.3    50  TRP50       0.1605
     25  C         24.2420  -16.3850   13.0580 C.2    50  TRP50       0.2264
     26  O         23.4950  -16.0950   12.1240 O.2    50  TRP50      -0.2867
     27  CB        22.4240  -15.9670   14.7010 C.3    50  TRP50       0.0550
     28  CG        21.6550  -16.3940   15.9110 C.ar   50  TRP50       0.0003
     29  CD1       21.8560  -17.5160   16.6660 C.ar   50  TRP50       0.0946
     30  CD2       20.5410  -15.7090   16.4960 C.ar   50  TRP50       0.0152
     31  NE1       20.9330  -17.5700   17.6860 N.ar   50  TRP50      -0.2442
     32  CE2       20.1130  -16.4730   17.6060 C.ar   50  TRP50       0.0810
     33  CE3       19.8590  -14.5220   16.1890 C.ar   50  TRP50       0.0012
     34  CZ2       19.0370  -16.0930   18.4100 C.ar   50  TRP50       0.0191
     35  CZ3       18.7850  -14.1430   16.9900 C.ar   50  TRP50       0.0001
     36  CH2       18.3860  -14.9310   18.0890 C.ar   50  TRP50       0.0015
     37  N         29.0400  -13.3800   26.3820 N.3    94  GLU94      -0.1231
     38  CA        28.3380  -13.9400   27.5260 C.3    94  GLU94       0.1699
     39  C         26.8490  -13.6930   27.5610 C.2    94  GLU94       0.2592
     40  O         26.0740  -14.6480   27.5500 O.2    94  GLU94      -0.2718
     41  CB        28.9170  -13.5230   28.8850 C.3    94  GLU94       0.0402
     42  CG        28.3890  -14.4550   30.0180 C.3    94  GLU94       0.1161
     43  CD        28.2690  -13.8090   31.4060 C.2    94  GLU94       0.3649
     44  OE1       29.3040  -13.3870   31.9810 O.co2  94  GLU94      -0.2457
     45  OE2       27.1300  -13.7620   31.9370 O.co2  94  GLU94      -0.2457
     46  N         26.4330  -12.4270   27.5670 N.am   95  ASN95      -0.1960
     47  CA        25.0050  -12.1510   27.7120 C.3    95  ASN95       0.1819
     48  C         24.2690  -11.0280   26.9660 C.2    95  ASN95       0.2621
     49  O         23.1810  -10.6210   27.3990 O.2    95  ASN95      -0.2715
     50  CB        24.6970  -12.0090   29.2080 C.3    95  ASN95       0.1195
     51  CG        25.5010  -10.9170   29.8570 C.2    95  ASN95       0.2630
     52  OD1       26.3590  -10.2870   29.2150 O.2    95  ASN95      -0.2716
     53  ND2       25.2540  -10.6920   31.1390 N.am   95  ASN95      -0.0877
     54  N         24.7960  -10.5730   25.8360 N.am   96  LEU96      -0.1977
     55  CA        24.1590   -9.4920   25.0870 C.3    96  LEU96       0.1596
     56  C         24.1280   -8.2310   25.9480 C.2    96  LEU96       0.2287
     57  O         23.1380   -7.5000   25.9650 O.2    96  LEU96      -0.2864
     58  CB        22.7240   -9.8470   24.6550 C.3    96  LEU96       0.0297
     59  CG        22.4780  -10.7080   23.4230 C.3    96  LEU96       0.0022
     60  CD1       21.0170  -10.6280   23.0580 C.3    96  LEU96       0.0001
     61  CD2       23.3290  -10.2240   22.2770 C.3    96  LEU96       0.0001
     62  N         19.9010  -16.9690   33.2110 N.3   172  ILE172     -0.1245
     63  CA        20.8120  -16.0250   32.5620 C.3   172  ILE172      0.1561
     64  C         21.1730  -14.8900   33.5260 C.2   172  ILE172      0.2260
     65  O         20.3190  -14.4170   34.2760 O.2   172  ILE172     -0.2867
     66  CB        20.1760  -15.3830   31.2800 C.3   172  ILE172      0.0252
     67  CG1       19.7140  -16.4550   30.2840 C.3   172  ILE172      0.0019
     68  CG2       21.1690  -14.4240   30.6220 C.3   172  ILE172      0.0019
     69  CD1       20.8170  -17.3350   29.7710 C.3   172  ILE172      0.0001
     70  N          4.0510   -9.7930   24.7740 N.3   192  ASP192     -0.1225
     71  CA         5.5090   -9.7780   24.8280 C.3   192  ASP192      0.1805
     72  C          5.9940   -9.5160   23.4090 C.2   192  ASP192      0.2598
     73  O          5.1960   -9.5170   22.4680 O.2   192  ASP192     -0.2718
     74  CB         5.9960  -11.1660   25.3330 C.3   192  ASP192      0.1424
     75  CG         7.5280  -11.3020   25.4480 C.2   192  ASP192      0.3668
     76  OD1        8.2610  -10.3020   25.6100 O.co2 192  ASP192     -0.2456
     77  OD2        8.0060  -12.4580   25.3980 O.co2 192  ASP192     -0.2456
     78  N          7.2700   -9.1730   23.2720 N.am  193  ALA193     -0.1966
     79  CA         7.8580   -8.9970   21.9600 C.3   193  ALA193      0.1728
     80  C          8.1550  -10.4300   21.5070 C.2   193  ALA193      0.2616
     81  O          7.9800  -11.3800   22.2730 O.2   193  ALA193     -0.2715
     82  CB         9.1430   -8.2030   22.0580 C.3   193  ALA193      0.0334
     83  N          8.6060  -10.5970   20.2760 N.am  194  CYS194     -0.1954
     84  CA         8.9120  -11.9290   19.7860 C.3   194  CYS194      0.1843
     85  C          9.8820  -11.7700   18.6300 C.2   194  CYS194      0.2625
     86  O         10.3390  -10.6540   18.3600 O.2   194  CYS194     -0.2714
     87  CB         7.6300  -12.6550   19.3400 C.3   194  CYS194      0.0997
     88  SG         7.8250  -14.4640   19.1420 S.3   194  CYS194     -0.0797
     89  N         10.2240  -12.8780   17.9720 N.am  195  GLU195     -0.1977
     90  CA        11.1430  -12.8550   16.8350 C.3   195  GLU195      0.1602
     91  C         10.6300  -11.8650   15.7820 C.2   195  GLU195      0.2287
     92  O          9.4500  -11.8760   15.4230 O.2   195  GLU195     -0.2864
     93  CB        11.2840  -14.2630   16.2360 C.3   195  GLU195      0.0415
     94  CG        12.4170  -14.3960   15.2160 C.3   195  GLU195      0.1163
     95  CD        12.5960  -15.8130   14.6750 C.2   195  GLU195      0.3649
     96  OE1       13.7140  -16.1320   14.2130 O.co2 195  GLU195     -0.2457
     97  OE2       11.6280  -16.6090   14.7010 O.co2 195  GLU195     -0.2457
     98  N         12.8590   -7.6400   17.8440 N.3   198  SER198     -0.1217
     99  CA        14.1040   -7.1670   18.4370 C.3   198  SER198      0.1889
    100  C         14.7340   -5.9880   17.7020 C.2   198  SER198      0.2288
    101  O         14.6390   -5.8770   16.4770 O.2   198  SER198     -0.2866
    102  CB        15.0920   -8.3170   18.6850 C.3   198  SER198      0.2089
    103  OG        15.5110   -8.9570   17.5090 O.3   198  SER198     -0.2183
    104  N         14.1050   -3.7250   22.5040 N.3   218  VAL218     -0.1231
    105  CA        13.8230   -5.1640   22.5810 C.3   218  VAL218      0.1692
    106  C         15.1630   -5.8640   22.3770 C.2   218  VAL218      0.2593
    107  O         15.7800   -5.7400   21.3020 O.2   218  VAL218     -0.2718
    108  CB        12.8460   -5.6310   21.4740 C.3   218  VAL218      0.0266
    109  CG1       12.5750   -7.1450   21.5990 C.3   218  VAL218      0.0020
    110  CG2       11.5450   -4.8460   21.5390 C.3   218  VAL218      0.0020
    111  N         15.6170   -6.5800   23.4070 N.am  219  SER219     -0.1938
    112  CA        16.9150   -7.2400   23.3580 C.3   219  SER219      0.2055
    113  C         16.8900   -8.7600   23.2510 C.2   219  SER219      0.2643
    114  O         17.3700   -9.3280   22.2620 O.2   219  SER219     -0.2714
    115  CB        17.7630   -6.8010   24.5600 C.3   219  SER219      0.2130
    116  OG        19.1030   -7.2500   24.4440 O.3   219  SER219     -0.2179
    117  N         16.3790   -9.4230   24.2780 N.am  220  TRP220     -0.1959
    118  CA        16.3340  -10.8720   24.2590 C.3   220  TRP220      0.1771
    119  C         15.1850  -11.4190   25.0730 C.2   220  TRP220      0.2620
    120  O         14.5050  -10.6890   25.7850 O.2   220  TRP220     -0.2715
    121  CB        17.6690  -11.4620   24.7280 C.3   220  TRP220      0.0590
    122  CG        18.0490  -11.1620   26.1570 C.ar  220  TRP220      0.0006
    123  CD1       18.7110  -10.0600   26.6140 C.ar  220  TRP220      0.0946
    124  CD2       17.8310  -12.0040   27.3020 C.ar  220  TRP220      0.0152
    125  NE1       18.9220  -10.1640   27.9700 N.ar  220  TRP220     -0.2442
    126  CE2       18.3940  -11.3470   28.4180 C.ar  220  TRP220      0.0810
    127  CE3       17.2160  -13.2530   27.4910 C.ar  220  TRP220      0.0012
    128  CZ2       18.3660  -11.8920   29.7070 C.ar  220  TRP220      0.0191
    129  CZ3       17.1860  -13.7980   28.7720 C.ar  220  TRP220      0.0001
    130  CH2       17.7590  -13.1140   29.8640 C.ar  220  TRP220      0.0015
    131  N         14.9370  -12.7060   24.9090 N.am  221  GLY221     -0.1940
    132  CA        13.8720  -13.3570   25.6310 C.3   221  GLY221      0.2014
    133  C         14.0200  -14.8430   25.4030 C.2   221  GLY221      0.2639
    134  O         14.7700  -15.2630   24.5130 O.2   221  GLY221     -0.2714
    135  N         13.3450  -15.6300   26.2350 N.am  222  GLU222     -0.1963
    136  CA        13.3630  -17.0760   26.1440 C.3   222  GLU222      0.1733
    137  C         11.9620  -17.4640   25.7260 C.2   222  GLU222      0.2617
    138  O         11.0270  -17.4720   26.5280 O.2   222  GLU222     -0.2715
    139  CB        13.7420  -17.6840   27.4940 C.3   222  GLU222      0.0429
    140  CG        15.1400  -17.2660   27.9430 C.3   222  GLU222      0.1163
    141  CD        15.4750  -17.6910   29.3730 C.2   222  GLU222      0.3649
    142  OE1       14.8050  -17.2130   30.3170 O.co2 222  GLU222     -0.2457
    143  OE2       16.4310  -18.4810   29.5450 O.co2 222  GLU222     -0.2457
    144  N         11.8160  -17.7560   24.4430 N.am  223  GLY223     -0.1940
    145  CA        10.5100  -18.0940   23.9160 C.3   223  GLY223      0.2014
    146  C          9.7810  -16.7880   23.6820 C.2   223  GLY223      0.2639
    147  O         10.4180  -15.7410   23.5070 O.2   223  GLY223     -0.2714
    148  N          8.4580  -16.8350   23.6730 N.am  224  CYS224     -0.1967
    149  CA         7.6730  -15.6300   23.4720 C.3   224  CYS224      0.1712
    150  C          6.4030  -15.7640   24.2580 C.2   224  CYS224      0.2296
    151  O          5.6550  -16.7270   24.0770 O.2   224  CYS224     -0.2864
    152  CB         7.3090  -15.4080   21.9950 C.3   224  CYS224      0.0983
    153  SG         8.6990  -15.0410   20.8900 S.3   224  CYS224     -0.0798
    154  N          9.9770  -13.2000   30.9560 N.3   230  TYR230     -0.1227
    155  CA         9.8090  -11.7800   30.6770 C.3   230  TYR230      0.1736
    156  C         10.7130  -11.3470   29.5380 C.2   230  TYR230      0.2596
    157  O         11.7490  -11.9660   29.2790 O.2   230  TYR230     -0.2718
    158  CB        10.1240  -10.9400   31.9310 C.3   230  TYR230      0.0548
    159  CG         9.2780  -11.3170   33.1230 C.ar  230  TYR230     -0.0200
    160  CD1        9.6860  -12.3220   34.0060 C.ar  230  TYR230     -0.0009
    161  CD2        8.0220  -10.7450   33.3100 C.ar  230  TYR230     -0.0009
    162  CE1        8.8560  -12.7550   35.0290 C.ar  230  TYR230      0.0417
    163  CE2        7.1890  -11.1710   34.3300 C.ar  230  TYR230      0.0417
    164  CZ         7.6090  -12.1780   35.1780 C.ar  230  TYR230      0.1957
    165  OH         6.7380  -12.6310   36.1350 O.3   230  TYR230     -0.2866
    166  N         10.3140  -10.2840   28.8540 N.am  231  GLY231     -0.1942
    167  CA        11.1220   -9.7770   27.7710 C.3   231  GLY231      0.2014
    168  C         12.1700   -8.8790   28.3820 C.2   231  GLY231      0.2639
    169  O         11.8850   -8.1490   29.3340 O.2   231  GLY231     -0.2714
    170  N         13.3970   -8.9730   27.8890 N.am  232  PHE232     -0.1959
    171  CA        14.4760   -8.1360   28.3840 C.3   232  PHE232      0.1771
    172  C         14.7930   -7.0260   27.3970 C.2   232  PHE232      0.2619
    173  O         14.7490   -7.2150   26.1740 O.2   232  PHE232     -0.2715
    174  CB        15.6880   -8.9820   28.7480 C.3   232  PHE232      0.0574
    175  CG        15.4930   -9.7610   30.0260 C.ar  232  PHE232     -0.0200
    176  CD1       14.6280  -10.8550   30.0650 C.ar  232  PHE232     -0.0042
    177  CD2       16.1110   -9.3520   31.2070 C.ar  232  PHE232     -0.0042
    178  CE1       14.3740  -11.5270   31.2670 C.ar  232  PHE232     -0.0003
    179  CE2       15.8650  -10.0120   32.4030 C.ar  232  PHE232     -0.0003
    180  CZ        14.9930  -11.1010   32.4320 C.ar  232  PHE232     -0.0000
    181  N         15.0960   -5.8590   27.9480 N.am  233  TYR233     -0.1974
    182  CA        15.3400   -4.6740   27.1660 C.3   233  TYR233      0.1639
    183  C         16.6360   -3.9760   27.5100 C.2   233  TYR233      0.2290
    184  O         17.0650   -3.9670   28.6610 O.2   233  TYR233     -0.2864
    185  CB        14.1710   -3.7040   27.3730 C.3   233  TYR233      0.0560
    186  CG        12.8200   -4.2800   27.0020 C.ar  233  TYR233     -0.0198
    187  CD1       12.1340   -5.1410   27.8690 C.ar  233  TYR233     -0.0009
    188  CD2       12.2480   -4.0130   25.7550 C.ar  233  TYR233     -0.0009
    189  CE1       10.9120   -5.7260   27.4930 C.ar  233  TYR233      0.0417
    190  CE2       11.0320   -4.5930   25.3720 C.ar  233  TYR233      0.0417
    191  CZ        10.3670   -5.4480   26.2360 C.ar  233  TYR233      0.1957
    192  OH         9.1700   -6.0220   25.8320 O.3   233  TYR233     -0.2866
@<TRIPOS>BOND
     1    26    25    2
     2    25    24    1
     3    96    95   ar
     4    24    27    1
     5    24    23    1
     6    95    97   ar
     7    95    94    1
     8    27    28    1
     9    94    93    1
    10    14    13    2
    11    92    91    2
    12    11    12    1
    13    91    90    1
    14    13    12    1
    15    28    30   ar
    16    28    29   ar
    17     4     3    2
    18    33    30   ar
    19    33    35   ar
    20    93    90    1
    21    12    15    1
    22   101   100    2
    23    30    32   ar
    24     3     2    1
    25    15    16    1
    26    29    31   ar
    27    90    89    1
    28    35    36   ar
    29   103   102    1
    30    32    31   ar
    31    32    34   ar
    32   100    99    1
    33    18    16   ar
    34    18    20   ar
    35    16    17   ar
    36    98    99    1
    37     2     1    1
    38     2     5    1
    39    89    85   am
    40    36    34   ar
    41     8    10   ar
    42     8     6   ar
    43    86    85    2
    44    99   102    1
    45    10     9   ar
    46    85    84    1
    47    20    21   ar
    48     6     5    1
    49     6     7   ar
    50    17    19   ar
    51    88    87    1
    52    88   153    1
    53    87    84    1
    54     9     7   ar
    55    84    83    1
    56    21    19   ar
    57    21    22    1
    58    83    80   am
    59   153   152    1
    60   107   106    2
    61   108   110    1
    62   108   109    1
    63   108   105    1
    64    80    79    1
    65    80    81    2
    66    79    82    1
    67    79    78    1
    68   152   149    1
    69   114   113    2
    70    61    59    1
    71   106   105    1
    72   106   111   am
    73    73    72    2
    74   104   105    1
    75    60    59    1
    76   113   112    1
    77   113   117   am
    78    78    72   am
    79   112   111    1
    80   112   115    1
    81    72    71    1
    82    59    58    1
    83   149   148    1
    84   149   150    1
    85   147   146    2
    86   148   146   am
    87   146   145    1
    88   145   144    1
    89   151   150    2
    90   118   117    1
    91   118   121    1
    92   118   119    1
    93   144   137   am
    94   116   115    1
    95   134   133    2
    96    58    55    1
    97   121   122    1
    98    70    71    1
    99    71    74    1
   100   131   119   am
   101   131   132    1
   102   119   120    2
   103    55    54    1
   104    55    56    1
   105    74    75    1
   106   190   188   ar
   107   190   191   ar
   108    77    75   ar
   109   133   132    1
   110   133   135   am
   111    75    76   ar
   112   137   136    1
   113   137   138    2
   114   188   186   ar
   115   192   191    1
   116    54    48   am
   117    56    57    2
   118   136   135    1
   119   136   139    1
   120   122   123   ar
   121   122   124   ar
   122   173   172    2
   123   191   189   ar
   124    37    38    1
   125   123   125   ar
   126    48    49    2
   127    48    47    1
   128   186   185    1
   129   186   187   ar
   130   182   185    1
   131   182   183    1
   132   182   181    1
   133   124   127   ar
   134   124   126   ar
   135   172   181   am
   136   172   171    1
   137   127   129   ar
   138   189   187   ar
   139   139   140    1
   140   183   184    2
   141    38    39    1
   142    38    41    1
   143    40    39    2
   144    39    46   am
   145    46    47    1
   146    47    50    1
   147   167   168    1
   148   167   166    1
   149   170   168   am
   150   170   171    1
   151   140   141    1
   152   125   126   ar
   153   168   169    2
   154   171   174    1
   155   126   128   ar
   156   174   175    1
   157   129   130   ar
   158   166   156   am
   159    41    42    1
   160    50    51    1
   161    52    51    2
   162   157   156    2
   163   141   143   ar
   164   141   142   ar
   165   156   155    1
   166   128   130   ar
   167    69    67    1
   168    51    53   am
   169    42    43    1
   170   175   176   ar
   171   175   177   ar
   172   176   178   ar
   173    67    66    1
   174    68    66    1
   175   155   154    1
   176   155   158    1
   177   177   179   ar
   178   178   180   ar
   179    66    63    1
   180    43    45   ar
   181    43    44   ar
   182   158   159    1
   183   179   180   ar
   184    63    62    1
   185    63    64    1
   186   159   161   ar
   187   159   160   ar
   188   161   163   ar
   189    64    65    2
   190   160   162   ar
   191   163   164   ar
   192   162   164   ar
   193   164   165    1
