@<TRIPOS>MOLECULE
tmp/1g35B00.pdb
 116 109 0 0 0
SMALL
GASTEIGER

@<TRIPOS>ATOM
      1  N          9.1980   34.9040   -1.5190 N.3     8  ARG8       -0.1245
      2  CA         9.9080   33.6310   -1.6500 C.3     8  ARG8        0.1563
      3  C         10.8090   33.6310   -2.8740 C.2     8  ARG8        0.2260
      4  O         10.4120   34.0940   -3.9370 O.2     8  ARG8       -0.2867
      5  CB         8.9270   32.4680   -1.7600 C.3     8  ARG8        0.0307
      6  CG         8.1450   32.1960   -0.4990 C.3     8  ARG8        0.0489
      7  CD         7.2800   30.9580   -0.6730 C.3     8  ARG8        0.2205
      8  NE         6.6290   30.5740    0.5750 N.pl3   8  ARG8       -0.0865
      9  CZ         5.7970   29.5460    0.6950 C.cat   8  ARG8        0.5346
     10  NH1        5.5100   28.7970   -0.3640 N.pl3   8  ARG8        0.1354
     11  NH2        5.2560   29.2620    1.8740 N.pl3   8  ARG8        0.1354
     12  N         12.1880   26.4440   -5.2150 N.3    23  LEU23      -0.1245
     13  CA        12.6010   27.3860   -4.1830 C.3    23  LEU23       0.1561
     14  C         14.0950   27.2790   -3.8830 C.2    23  LEU23       0.2260
     15  O         14.5900   26.1850   -3.6030 O.2    23  LEU23      -0.2867
     16  CB        11.7970   27.0880   -2.9150 C.3    23  LEU23       0.0270
     17  CG        11.9810   27.8930   -1.6350 C.3    23  LEU23       0.0019
     18  CD1       11.6060   29.3480   -1.8720 C.3    23  LEU23       0.0001
     19  CD2       11.0940   27.2800   -0.5470 C.3    23  LEU23       0.0001
     20  N         16.7370   27.2340   -1.5700 N.3    25  ASP25      -0.1239
     21  CA        16.7130   26.9710   -0.1380 C.3    25  ASP25       0.1674
     22  C         18.0910   26.7320    0.4850 C.2    25  ASP25       0.2266
     23  O         18.6360   25.6340    0.3680 O.2    25  ASP25      -0.2867
     24  CB        15.8420   25.7300    0.0570 C.3    25  ASP25       0.1410
     25  CG        15.3340   25.5690    1.4670 C.2    25  ASP25       0.3668
     26  OD1       16.0500   25.9220    2.4250 O.co2  25  ASP25      -0.2456
     27  OD2       14.2030   25.0570    1.6060 O.co2  25  ASP25      -0.2456
     28  N         18.7710   26.4060    3.5670 N.3    27  GLY27      -0.1210
     29  CA        18.6800   25.5420    4.7360 C.3    27  GLY27       0.1956
     30  C         18.6200   24.0650    4.3600 C.2    27  GLY27       0.2612
     31  O         18.6600   23.1830    5.2180 O.2    27  GLY27      -0.2717
     32  N         18.5210   23.7920    3.0670 N.am   28  ALA28      -0.1965
     33  CA        18.4450   22.4190    2.5810 C.3    28  ALA28       0.1728
     34  C         19.8010   21.9210    2.0680 C.2    28  ALA28       0.2616
     35  O         20.4070   22.5560    1.2060 O.2    28  ALA28      -0.2715
     36  CB        17.4010   22.3370    1.4710 C.3    28  ALA28       0.0334
     37  N         20.2780   20.7860    2.5850 N.am   29  ASP29      -0.1957
     38  CA        21.5680   20.2500    2.1300 C.3    29  ASP29       0.1840
     39  C         21.4590   19.7020    0.7220 C.2    29  ASP29       0.2622
     40  O         22.3940   19.8070   -0.0710 O.2    29  ASP29      -0.2715
     41  CB        22.0600   19.0880    3.0020 C.3    29  ASP29       0.1450
     42  CG        22.2580   19.4710    4.4530 C.2    29  ASP29       0.3671
     43  OD1       22.6240   20.6240    4.7280 O.co2  29  ASP29      -0.2456
     44  OD2       22.0650   18.5930    5.3200 O.co2  29  ASP29      -0.2456
     45  N         20.3170   19.0830    0.4380 N.am   30  ASP30      -0.1971
     46  CA        20.0770   18.4540   -0.8540 C.3    30  ASP30       0.1709
     47  C         18.9020   19.0650   -1.5950 C.2    30  ASP30       0.2293
     48  O         18.1360   19.8510   -1.0390 O.2    30  ASP30      -0.2864
     49  CB        19.7970   16.9620   -0.6590 C.3    30  ASP30       0.1436
     50  CG        20.7860   16.2960    0.2810 C.2    30  ASP30       0.3671
     51  OD1       21.9890   16.3010   -0.0240 O.co2  30  ASP30      -0.2456
     52  OD2       20.3520   15.7690    1.3260 O.co2  30  ASP30      -0.2456
     53  N         15.3450   18.4780   -3.4830 N.3    32  VAL32      -0.1245
     54  CA        14.2130   17.5520   -3.4480 C.3    32  VAL32       0.1561
     55  C         13.0770   18.0440   -4.3310 C.2    32  VAL32       0.2260
     56  O         12.5790   19.1560   -4.1560 O.2    32  VAL32      -0.2867
     57  CB        13.6430   17.3980   -2.0210 C.3    32  VAL32       0.0252
     58  CG1       12.7450   16.1610   -1.9580 C.3    32  VAL32       0.0019
     59  CG2       14.7660   17.3100   -1.0100 C.3    32  VAL32       0.0019
     60  N         15.5970   11.8340    4.6660 N.3    47  ILE47      -0.1231
     61  CA        15.9400   13.2260    4.9100 C.3    47  ILE47       0.1692
     62  C         15.0170   13.7640    5.9870 C.2    47  ILE47       0.2593
     63  O         13.8720   13.3230    6.1160 O.2    47  ILE47      -0.2718
     64  CB        15.8130   14.0960    3.6390 C.3    47  ILE47       0.0266
     65  CG1       14.3820   14.0490    3.1010 C.3    47  ILE47       0.0019
     66  CG2       16.8220   13.6260    2.5940 C.3    47  ILE47       0.0020
     67  CD1       14.1360   14.9830    1.9220 C.3    47  ILE47       0.0001
     68  N         15.5240   14.7110    6.7650 N.am   48  GLY48      -0.1942
     69  CA        14.7280   15.2710    7.8360 C.3    48  GLY48       0.2014
     70  C         14.3320   16.7180    7.6510 C.2    48  GLY48       0.2639
     71  O         15.1280   17.5580    7.2280 O.2    48  GLY48      -0.2714
     72  N         13.0760   16.9990    7.9640 N.am   49  GLY49      -0.1939
     73  CA        12.5710   18.3530    7.8730 C.3    49  GLY49       0.2014
     74  C         12.1230   18.7550    9.2620 C.2    49  GLY49       0.2638
     75  O         12.4290   18.0800   10.2420 O.2    49  GLY49      -0.2714
     76  N         11.3860   19.8500    9.3530 N.am   50  ILE50      -0.1977
     77  CA        10.8990   20.3300   10.6320 C.3    50  ILE50       0.1596
     78  C          9.9140   19.3440   11.2710 C.2    50  ILE50       0.2287
     79  O          9.8610   19.2140   12.4900 O.2    50  ILE50      -0.2864
     80  CB        10.2160   21.7040   10.4520 C.3    50  ILE50       0.0276
     81  CG1        9.7750   22.2600   11.8000 C.3    50  ILE50       0.0022
     82  CG2        9.0330   21.5770    9.5050 C.3    50  ILE50       0.0022
     83  CD1        9.2380   23.6690   11.7050 C.3    50  ILE50       0.0001
     84  N         11.1510   12.7840    9.4660 N.3    53  PHE53      -0.1241
     85  CA        11.8900   12.2550    8.3260 C.3    53  PHE53       0.1605
     86  C         10.9720   11.6260    7.2880 C.2    53  PHE53       0.2264
     87  O          9.8750   11.1660    7.6060 O.2    53  PHE53      -0.2867
     88  CB        12.9160   11.2100    8.7890 C.3    53  PHE53       0.0534
     89  CG        13.9720   11.7550    9.7090 C.ar   53  PHE53      -0.0203
     90  CD1       13.6740   12.0600   11.0340 C.ar   53  PHE53      -0.0042
     91  CD2       15.2700   11.9660    9.2490 C.ar   53  PHE53      -0.0042
     92  CE1       14.6530   12.5660   11.8890 C.ar   53  PHE53      -0.0003
     93  CE2       16.2580   12.4730   10.0960 C.ar   53  PHE53      -0.0003
     94  CZ        15.9490   12.7730   11.4180 C.ar   53  PHE53      -0.0000
     95  N          6.7540   19.5840    0.0960 N.3    81  PRO81      -0.2102
     96  CA         5.7490   20.6500   -0.0250 C.3    81  PRO81       0.1504
     97  C          5.8850   21.4600   -1.3160 C.2    81  PRO81       0.2575
     98  O          4.8920   21.9120   -1.8910 O.2    81  PRO81      -0.2718
     99  CB         6.0090   21.5080    1.2130 C.3    81  PRO81       0.0282
    100  CG         6.5320   20.5240    2.1980 C.3    81  PRO81       0.0208
    101  CD         7.4880   19.7060    1.3660 C.3    81  PRO81       0.0893
    102  N          7.1250   21.6450   -1.7600 N.am   82  VAL82      -0.1980
    103  CA         7.4200   22.3890   -2.9810 C.3    82  VAL82       0.1595
    104  C          8.7700   21.9130   -3.4900 C.2    82  VAL82       0.2287
    105  O          9.5350   21.3110   -2.7340 O.2    82  VAL82      -0.2864
    106  CB         7.5370   23.9230   -2.7290 C.3    82  VAL82       0.0276
    107  CG1        6.2050   24.4930   -2.2650 C.3    82  VAL82       0.0022
    108  CG2        8.6240   24.2000   -1.6990 C.3    82  VAL82       0.0022
    109  N         12.4290   22.0020   -4.0740 N.3    84  ILE84      -0.1245
    110  CA        13.4930   22.6730   -3.3360 C.3    84  ILE84       0.1561
    111  C         14.8830   22.4900   -3.9480 C.2    84  ILE84       0.2260
    112  O         15.3120   21.3700   -4.2030 O.2    84  ILE84      -0.2867
    113  CB        13.5300   22.1530   -1.8720 C.3    84  ILE84       0.0252
    114  CG1       12.3010   22.6670   -1.1150 C.3    84  ILE84       0.0019
    115  CG2       14.8150   22.5870   -1.1750 C.3    84  ILE84       0.0019
    116  CD1       12.1080   22.0160    0.2470 C.3    84  ILE84       0.0001
@<TRIPOS>BOND
     1    12    13    1
     2    55    56    2
     3    55    54    1
     4   112   111    2
     5    13    14    1
     6    13    16    1
     7   109   110    1
     8   111   110    1
     9     4     3    2
    10    14    15    2
    11   104   103    1
    12   104   105    2
    13    53    54    1
    14    54    57    1
    15   110   113    1
    16   103   106    1
    17   103   102    1
    18    16    17    1
    19     3     2    1
    20   106   107    1
    21   106   108    1
    22    57    58    1
    23    57    59    1
    24    98    97    2
    25    18    17    1
    26   113   115    1
    27   113   114    1
    28   102    97   am
    29     5     2    1
    30     5     6    1
    31     2     1    1
    32    17    19    1
    33    47    48    2
    34    47    46    1
    35    20    21    1
    36    97    96    1
    37   114   116    1
    38    46    49    1
    39    46    45    1
    40     7     6    1
    41     7     8    1
    42    49    50    1
    43    10     9    1
    44    21    24    1
    45    21    22    1
    46    40    39    2
    47    96    95    1
    48    96    99    1
    49    51    50   ar
    50    24    25    1
    51    95   101    1
    52    50    52   ar
    53    23    22    2
    54    45    39   am
    55     8     9    2
    56     9    11    1
    57    39    38    1
    58    35    34    2
    59    99   100    1
    60   101   100    1
    61    25    27   ar
    62    25    26   ar
    63    36    33    1
    64    67    65    1
    65    34    33    1
    66    34    37   am
    67    38    37    1
    68    38    41    1
    69    33    32    1
    70    66    64    1
    71    41    42    1
    72    32    30   am
    73    65    64    1
    74    28    29    1
    75    64    61    1
    76    30    29    1
    77    30    31    2
    78    42    43   ar
    79    42    44   ar
    80    60    61    1
    81    61    62    1
    82    62    63    2
    83    62    68   am
    84    68    69    1
    85    71    70    2
    86    86    87    2
    87    86    85    1
    88    70    69    1
    89    70    72   am
    90    73    72    1
    91    73    74    1
    92    85    88    1
    93    85    84    1
    94    88    89    1
    95    91    89   ar
    96    91    93   ar
    97    74    76   am
    98    74    75    2
    99    76    77    1
   100    82    80    1
   101    89    90   ar
   102    93    94   ar
   103    80    77    1
   104    80    81    1
   105    77    78    1
   106    90    92   ar
   107    78    79    2
   108    94    92   ar
   109    83    81    1
