@<TRIPOS>MOLECULE
tmp/1g36A00.pdb
 163 162 0 0 0
SMALL
GASTEIGER

@<TRIPOS>ATOM
      1  N          7.3730    2.5400   24.0300 N.3    40  HIS40      -0.1241
      2  CA         6.2980    1.5630   24.0360 C.3    40  HIS40       0.1621
      3  C          6.2270    0.7240   22.7590 C.2    40  HIS40       0.2264
      4  O          5.4470   -0.2180   22.6730 O.2    40  HIS40      -0.2867
      5  CB         4.9530    2.2160   24.3910 C.3    40  HIS40       0.0745
      6  CG         4.2390    2.8560   23.2450 C.ar   40  HIS40       0.0817
      7  ND1        4.2470    4.2180   23.0190 N.ar   40  HIS40      -0.2268
      8  CD2        3.3930    2.3320   22.3190 C.ar   40  HIS40       0.1154
      9  CE1        3.4410    4.5080   22.0160 C.ar   40  HIS40       0.1986
     10  NE2        2.9100    3.3810   21.5770 N.ar   40  HIS40      -0.2212
     11  N          3.4260    2.7390   32.9220 N.3    79  ASN79      -0.1225
     12  CA         2.1030    3.0550   33.4210 C.3    79  ASN79       0.1785
     13  C          1.6980    4.4900   33.1490 C.2    79  ASN79       0.2598
     14  O          0.5360    4.7610   32.8880 O.2    79  ASN79      -0.2718
     15  CB         1.9810    2.7170   34.9040 C.3    79  ASN79       0.1169
     16  CG         1.9860    1.2180   35.1530 C.2    79  ASN79       0.2627
     17  OD1        2.8220    0.7060   35.8920 O.2    79  ASN79      -0.2716
     18  ND2        1.0700    0.5040   34.5120 N.am   79  ASN79      -0.0877
     19  N          2.6640    5.3990   33.1640 N.am   80  THR80      -0.1939
     20  CA         2.3890    6.8130   32.9240 C.3    80  THR80       0.2028
     21  C          2.7970    7.2670   31.5230 C.2    80  THR80       0.2642
     22  O          2.3570    8.3190   31.0450 O.2    80  THR80      -0.2714
     23  CB         3.1510    7.6880   33.9210 C.3    80  THR80       0.1808
     24  OG1        4.5580    7.5130   33.7200 O.3    80  THR80      -0.2208
     25  CG2        2.8070    7.2840   35.3520 C.3    80  THR80       0.0379
     26  N          3.6360    6.4580   30.8820 N.am   81  LEU81      -0.1977
     27  CA         4.1870    6.7260   29.5580 C.3    81  LEU81       0.1596
     28  C          5.1760    7.8830   29.5840 C.2    81  LEU81       0.2287
     29  O          5.5010    8.4700   28.5560 O.2    81  LEU81      -0.2864
     30  CB         3.0960    6.9380   28.4890 C.3    81  LEU81       0.0297
     31  CG         2.3620    5.6790   27.9880 C.3    81  LEU81       0.0022
     32  CD1        1.9000    5.8920   26.5590 C.3    81  LEU81       0.0001
     33  CD2        3.2920    4.4780   28.0030 C.3    81  LEU81       0.0001
     34  N         -2.2640   13.8140   34.0780 N.3   155  GLN155     -0.1245
     35  CA        -1.5780   12.8250   33.2550 C.3   155  GLN155      0.1566
     36  C         -0.4740   13.3830   32.3680 C.2   155  GLN155      0.2260
     37  O          0.2500   12.6290   31.7290 O.2   155  GLN155     -0.2867
     38  CB        -2.5810   12.1120   32.3720 C.3   155  GLN155      0.0367
     39  CG        -3.7050   11.4820   33.1290 C.3   155  GLN155      0.0905
     40  CD        -4.8060   11.0620   32.2090 C.2   155  GLN155      0.2608
     41  OE1       -5.7530   11.8110   31.9740 O.2   155  GLN155     -0.2717
     42  NE2       -4.6880    9.8670   31.6580 N.am  155  GLN155     -0.0878
     43  N         -6.3000   13.6450   13.8820 N.3   171  ASP171     -0.1225
     44  CA        -5.3950   13.2290   14.9440 C.3   171  ASP171      0.1805
     45  C         -4.5050   12.0760   14.4640 C.2   171  ASP171      0.2598
     46  O         -4.6680   11.5760   13.3410 O.2   171  ASP171     -0.2718
     47  CB        -6.2760   12.7180   16.0960 C.3   171  ASP171      0.1424
     48  CG        -5.5380   12.5860   17.4220 C.2   171  ASP171      0.3668
     49  OD1       -4.3570   12.9830   17.5510 O.co2 171  ASP171     -0.2456
     50  OD2       -6.1780   12.0840   18.3650 O.co2 171  ASP171     -0.2456
     51  N         -3.4960   11.7310   15.2610 N.am  172  SER172     -0.1938
     52  CA        -2.6710   10.5680   14.9630 C.3   172  SER172      0.2055
     53  C         -3.4590    9.4530   15.6580 C.2   172  SER172      0.2643
     54  O         -4.4260    9.7300   16.3810 O.2   172  SER172     -0.2714
     55  CB        -1.2470   10.6950   15.5280 C.3   172  SER172      0.2130
     56  OG        -1.2380   11.0150   16.9090 O.3   172  SER172     -0.2179
     57  N         -3.0610    8.2020   15.4700 N.am  173  CYS173     -0.1953
     58  CA        -3.7910    7.0920   16.0760 C.3   173  CYS173      0.1843
     59  C         -2.8730    5.8790   16.2400 C.2   173  CYS173      0.2625
     60  O         -1.6790    5.9480   15.9230 O.2   173  CYS173     -0.2714
     61  CB        -4.9880    6.7540   15.1860 C.3   173  CYS173      0.0997
     62  SG        -6.2910    5.7440   15.9530 S.3   173  CYS173     -0.0797
     63  N         -3.4320    4.7840   16.7490 N.am  174  GLN174     -0.1977
     64  CA        -2.6910    3.5430   16.9590 C.3   174  GLN174      0.1601
     65  C         -2.0000    3.1820   15.6340 C.2   174  GLN174      0.2287
     66  O         -2.6130    3.2780   14.5660 O.2   174  GLN174     -0.2864
     67  CB        -3.6730    2.4400   17.3690 C.3   174  GLN174      0.0394
     68  CG        -4.7070    2.1530   16.2820 C.3   174  GLN174      0.0908
     69  CD        -5.9890    1.4870   16.7750 C.2   174  GLN174      0.2608
     70  OE1       -6.1870    0.2800   16.5930 O.2   174  GLN174     -0.2717
     71  NE2       -6.9070    2.2900   17.3120 N.am  174  GLN174     -0.0878
     72  N          2.2120    5.4610   16.3000 N.3   177  SER177     -0.1217
     73  CA         3.1110    5.4610   17.4600 C.3   177  SER177      0.1889
     74  C          4.5880    5.3590   17.1170 C.2   177  SER177      0.2288
     75  O          4.9840    4.5230   16.3090 O.2   177  SER177     -0.2866
     76  CB         2.7300    4.3210   18.4030 C.3   177  SER177      0.2089
     77  OG         1.5150    4.6310   19.0400 O.3   177  SER177     -0.2183
     78  N          5.0220   10.4570   18.3210 N.3   191  VAL191     -0.1231
     79  CA         3.6430   10.0400   18.5700 C.3   191  VAL191      0.1692
     80  C          3.6700    9.0960   19.7790 C.2   191  VAL191      0.2593
     81  O          4.3480    8.0620   19.7570 O.2   191  VAL191     -0.2718
     82  CB         3.0520    9.3230   17.3470 C.3   191  VAL191      0.0266
     83  CG1        1.6150    8.9100   17.6140 C.3   191  VAL191      0.0020
     84  CG2        3.1320   10.2320   16.1240 C.3   191  VAL191      0.0020
     85  N          2.9160    9.4380   20.8190 N.am  192  SER192     -0.1938
     86  CA         2.9210    8.6480   22.0460 C.3   192  SER192      0.2055
     87  C          1.5840    8.0120   22.4410 C.2   192  SER192      0.2643
     88  O          1.4320    6.7790   22.3780 O.2   192  SER192     -0.2714
     89  CB         3.4740    9.5110   23.1850 C.3   192  SER192      0.2130
     90  OG         3.7680    8.7340   24.3260 O.3   192  SER192     -0.2179
     91  N          0.6230    8.8300   22.8580 N.am  193  TRP193     -0.1959
     92  CA        -0.6700    8.3100   23.2670 C.3   193  TRP193      0.1771
     93  C         -1.7710    9.3330   23.1330 C.2   193  TRP193      0.2620
     94  O         -1.5550   10.4490   22.6790 O.2   193  TRP193     -0.2715
     95  CB        -0.6290    7.7960   24.7120 C.3   193  TRP193      0.0590
     96  CG        -0.3580    8.8450   25.7630 C.ar  193  TRP193      0.0006
     97  CD1        0.8550    9.3540   26.1120 C.ar  193  TRP193      0.0946
     98  CD2       -1.3220    9.4980   26.6070 C.ar  193  TRP193      0.0152
     99  NE1        0.7130   10.2800   27.1160 N.ar  193  TRP193     -0.2442
    100  CE2       -0.6160   10.3900   27.4390 C.ar  193  TRP193      0.0810
    101  CE3       -2.7180    9.4130   26.7410 C.ar  193  TRP193      0.0012
    102  CZ2       -1.2490   11.1980   28.3970 C.ar  193  TRP193      0.0191
    103  CZ3       -3.3530   10.2180   27.6940 C.ar  193  TRP193      0.0001
    104  CH2       -2.6150   11.0960   28.5070 C.ar  193  TRP193      0.0015
    105  N         -2.9640    8.9310   23.5310 N.am  194  GLY194     -0.1940
    106  CA        -4.1080    9.8090   23.4730 C.3   194  GLY194      0.2014
    107  C         -5.2590    8.9710   23.9610 C.2   194  GLY194      0.2640
    108  O         -5.0660    7.7860   24.2550 O.2   194  GLY194     -0.2714
    109  N         -6.4330    9.5730   24.0900 N.am  195  SER195     -0.1935
    110  CA        -7.6150    8.8420   24.5280 C.3   195  SER195      0.2055
    111  C         -8.4840    8.6740   23.2870 C.2   195  SER195      0.2644
    112  O         -9.1560    9.6170   22.8590 O.2   195  SER195     -0.2714
    113  CB        -8.3500    9.6290   25.6100 C.3   195  SER195      0.2130
    114  OG        -9.4640    8.9010   26.0730 O.3   195  SER195     -0.2179
    115  N         -8.4590    7.4740   22.7120 N.am  196  GLY196     -0.1939
    116  CA        -9.1860    7.2160   21.4800 C.3   196  GLY196      0.2014
    117  C         -8.4110    7.9410   20.3840 C.2   196  GLY196      0.2639
    118  O         -7.2250    8.2300   20.5480 O.2   196  GLY196     -0.2714
    119  N         -9.0510    8.2390   19.2690 N.am  197  CYS197     -0.1967
    120  CA        -8.3850    8.9690   18.2010 C.3   197  CYS197      0.1712
    121  C         -9.3610    9.9770   17.6190 C.2   197  CYS197      0.2296
    122  O        -10.5290    9.6580   17.3810 O.2   197  CYS197     -0.2864
    123  CB        -7.9110    8.0270   17.1010 C.3   197  CYS197      0.0983
    124  SG        -6.7510    6.7450   17.6550 S.3   197  CYS197     -0.0798
    125  N         -9.8930   15.6740   23.2160 N.3   202  LYS202     -0.1231
    126  CA        -8.9130   14.6430   23.5700 C.3   202  LYS202      0.1678
    127  C         -7.8370   14.6350   22.4910 C.2   202  LYS202      0.2434
    128  O         -7.7700   13.7100   21.6780 O.2   202  LYS202     -0.2733
    129  CB        -9.5670   13.2550   23.6430 C.3   202  LYS202      0.0284
    130  CG       -10.5060   13.0800   24.8080 C.3   202  LYS202      0.0035
    131  CD        -9.7810   13.3360   26.1220 C.3   202  LYS202      0.0206
    132  CE       -10.7710   13.3860   27.2760 C.3   202  LYS202      0.1093
    133  NZ       -10.1290   13.7030   28.5910 N.3   202  LYS202     -0.1314
    134  N         -6.9890   15.6740   22.4570 N.am  203  PRO203     -0.2718
    135  CA        -5.9310   15.7460   21.4480 C.3   203  PRO203      0.1535
    136  C         -4.8300   14.7110   21.6700 C.2   203  PRO203      0.2599
    137  O         -4.7950   14.0300   22.6940 O.2   203  PRO203     -0.2715
    138  CB        -5.4190   17.1750   21.6030 C.3   203  PRO203      0.0310
    139  CG        -5.5750   17.4280   23.0570 C.3   203  PRO203      0.0237
    140  CD        -6.9280   16.8300   23.3700 C.3   203  PRO203      0.0939
    141  N         -3.9500   14.5790   20.6870 N.am  204  GLY204     -0.1941
    142  CA        -2.8620   13.6340   20.8120 C.3   204  GLY204      0.2014
    143  C         -1.7980   14.1390   21.7610 C.2   204  GLY204      0.2639
    144  O         -1.5820   15.3460   21.8680 O.2   204  GLY204     -0.2714
    145  N         -1.1470   13.2140   22.4640 N.am  205  VAL205     -0.1963
    146  CA        -0.0730   13.5420   23.3940 C.3   205  VAL205      0.1727
    147  C          1.2270   13.0120   22.8010 C.2   205  VAL205      0.2616
    148  O          1.3020   11.8740   22.3220 O.2   205  VAL205     -0.2715
    149  CB        -0.3180   12.9550   24.7820 C.3   205  VAL205      0.0290
    150  CG1        0.7780   13.4170   25.7420 C.3   205  VAL205      0.0023
    151  CG2       -1.6810   13.3870   25.2840 C.3   205  VAL205      0.0023
    152  N          2.2540   13.8440   22.8410 N.am  206  TYR206     -0.1974
    153  CA         3.5270   13.5210   22.2380 C.3   206  TYR206      0.1639
    154  C          4.7060   13.6930   23.1650 C.2   206  TYR206      0.2290
    155  O          4.6810   14.5270   24.0630 O.2   206  TYR206     -0.2864
    156  CB         3.7190   14.4180   21.0030 C.3   206  TYR206      0.0560
    157  CG         2.5910   14.2900   20.0050 C.ar  206  TYR206     -0.0198
    158  CD1        1.3990   15.0070   20.1600 C.ar  206  TYR206     -0.0009
    159  CD2        2.6920   13.4120   18.9380 C.ar  206  TYR206     -0.0009
    160  CE1        0.3400   14.8390   19.2710 C.ar  206  TYR206      0.0417
    161  CE2        1.6350   13.2400   18.0450 C.ar  206  TYR206      0.0417
    162  CZ         0.4660   13.9550   18.2180 C.ar  206  TYR206      0.1957
    163  OH        -0.5770   13.7880   17.3400 O.3   206  TYR206     -0.2866
@<TRIPOS>BOND
     1    46    45    2
     2    43    44    1
     3    45    44    1
     4    45    51   am
     5    66    65    2
     6    44    47    1
     7    52    51    1
     8    52    55    1
     9    52    53    1
    10    61    62    1
    11    61    58    1
    12    57    53   am
    13    57    58    1
    14    55    56    1
    15    65    64    1
    16    53    54    2
    17    60    59    2
    18    62   124    1
    19    58    59    1
    20    47    48    1
    21    84    82    1
    22    59    63   am
    23    68    69    1
    24    68    67    1
    25    72    73    1
    26    75    74    2
    27    70    69    2
    28    63    64    1
    29    69    71   am
    30    64    67    1
    31   123   124    1
    32   123   120    1
    33    74    73    1
    34   163   162    1
    35    82    83    1
    36    82    79    1
    37   122   121    2
    38    48    49   ar
    39    48    50   ar
    40    73    76    1
    41   121   120    1
    42   161   162   ar
    43   161   159   ar
    44   120   119    1
    45   162   160   ar
    46    78    79    1
    47    76    77    1
    48    79    80    1
    49   159   157   ar
    50   119   117   am
    51   160   158   ar
    52    81    80    2
    53    80    85   am
    54   157   158   ar
    55   157   156    1
    56   117   118    2
    57   117   116    1
    58   141   142    1
    59   141   136   am
    60   142   143    1
    61    85    86    1
    62   156   153    1
    63   135   138    1
    64   135   136    1
    65   135   134    1
    66   116   115    1
    67    10     9   ar
    68    10     8   ar
    69   138   139    1
    70   136   137    2
    71   128   127    2
    72   143   144    2
    73   143   145   am
    74     9     7   ar
    75    86    87    1
    76    86    89    1
    77   153   152    1
    78   153   154    1
    79     8     6   ar
    80   148   147    2
    81    88    87    2
    82    87    91   am
    83   134   127   am
    84   134   140    1
    85   145   146    1
    86   127   126    1
    87     4     3    2
    88    94    93    2
    89   115   111   am
    90     3     2    1
    91   147   152   am
    92   147   146    1
    93    91    92    1
    94   112   111    2
    95     7     6   ar
    96   139   140    1
    97    93    92    1
    98    93   105   am
    99   154   155    2
   100    89    90    1
   101   125   126    1
   102     6     5    1
   103    92    95    1
   104   111   110    1
   105   146   149    1
   106   106   105    1
   107   106   107    1
   108   126   129    1
   109   129   130    1
   110   107   109   am
   111   107   108    2
   112     1     2    1
   113     2     5    1
   114   109   110    1
   115   110   113    1
   116    95    96    1
   117   149   151    1
   118   149   150    1
   119   130   131    1
   120   113   114    1
   121    96    97   ar
   122    96    98   ar
   123    97    99   ar
   124   131   132    1
   125    32    31    1
   126    98   101   ar
   127    98   100   ar
   128   101   103   ar
   129    99   100   ar
   130   132   133    1
   131   100   102   ar
   132   103   104   ar
   133    31    33    1
   134    31    30    1
   135   102   104   ar
   136    30    27    1
   137    29    28    2
   138    27    28    1
   139    27    26    1
   140    26    21   am
   141    22    21    2
   142    21    20    1
   143    42    40   am
   144    37    36    2
   145    41    40    2
   146    40    39    1
   147    36    35    1
   148    38    39    1
   149    38    35    1
   150    14    13    2
   151    11    12    1
   152    20    19    1
   153    20    23    1
   154    13    19   am
   155    13    12    1
   156    35    34    1
   157    12    15    1
   158    24    23    1
   159    23    25    1
   160    18    16   am
   161    15    16    1
   162    16    17    2
