@<TRIPOS>MOLECULE
tmp/1g37A00.pdb
 153 146 0 0 0
SMALL
GASTEIGER

@<TRIPOS>ATOM
      1  N         11.7410   30.2450   10.5280 N.3    44  MET44      -0.1245
      2  CA        11.8950   28.8510   10.1560 C.3    44  MET44       0.1570
      3  C         13.2900   28.6490    9.5830 C.2    44  MET44       0.2261
      4  O         13.7180   29.4140    8.7040 O.2    44  MET44      -0.2867
      5  CB        10.8420   28.4590    9.1020 C.3    44  MET44       0.0387
      6  CG        11.0180   27.0550    8.5130 C.3    44  MET44       0.0595
      7  SD         9.7610   26.6300    7.2640 S.3    44  MET44      -0.1393
      8  CE         8.2730   26.5410    8.2350 C.3    44  MET44       0.0692
      9  N         15.3670   26.5470    7.2530 N.3    46  PHE46      -0.1241
     10  CA        14.9940   25.6840    6.1520 C.3    46  PHE46       0.1605
     11  C         16.2200   25.2070    5.3830 C.2    46  PHE46       0.2264
     12  O         17.0790   26.0110    4.9880 O.2    46  PHE46      -0.2867
     13  CB        14.0350   26.4810    5.2430 C.3    46  PHE46       0.0534
     14  CG        13.2500   25.6630    4.2720 C.ar   46  PHE46      -0.0203
     15  CD1       12.2520   24.8150    4.7160 C.ar   46  PHE46      -0.0042
     16  CD2       13.5030   25.7590    2.9090 C.ar   46  PHE46      -0.0042
     17  CE1       11.5070   24.0640    3.8290 C.ar   46  PHE46      -0.0003
     18  CE2       12.7590   25.0140    2.0020 C.ar   46  PHE46      -0.0003
     19  CZ        11.7550   24.1620    2.4680 C.ar   46  PHE46      -0.0000
     20  N         18.2230   23.8600    2.1860 N.3    48  LYS48      -0.1231
     21  CA        18.1200   24.0300    0.7450 C.3    48  LYS48       0.1693
     22  C         17.9130   22.7070    0.0180 C.2    48  LYS48       0.2592
     23  O         16.9750   22.5730   -0.7670 O.2    48  LYS48      -0.2718
     24  CB        19.3720   24.6900    0.1920 C.3    48  LYS48       0.0285
     25  CG        19.6030   26.1100    0.6560 C.3    48  LYS48       0.0035
     26  CD        20.8360   26.6790   -0.0290 C.3    48  LYS48       0.0206
     27  CE        21.1180   28.1070    0.4060 C.3    48  LYS48       0.1093
     28  NZ        22.3430   28.6600   -0.2440 N.3    48  LYS48      -0.1314
     29  N         18.7870   21.7330    0.2610 N.am   49  SER49      -0.1952
     30  CA        18.6910   20.4540   -0.4480 C.3    49  SER49       0.1924
     31  C         19.1350   19.2870    0.4130 C.2    49  SER49       0.2314
     32  O         20.3010   19.1930    0.7730 O.2    49  SER49      -0.2863
     33  CB        19.5500   20.4810   -1.7210 C.3    49  SER49       0.2116
     34  OG        19.2560   21.6150   -2.5230 O.3    49  SER49      -0.2180
     35  N         14.9220   20.0450    0.5810 N.3    51  GLN51      -0.1231
     36  CA        14.1210   21.1070    1.1760 C.3    51  GLN51       0.1698
     37  C         13.3870   20.5420    2.3690 C.2    51  GLN51       0.2592
     38  O         12.5430   19.6590    2.2160 O.2    51  GLN51      -0.2718
     39  CB        13.0870   21.6560    0.1730 C.3    51  GLN51       0.0381
     40  CG        13.6070   22.6930   -0.8240 C.3    51  GLN51       0.0905
     41  CD        12.4940   23.3580   -1.6530 C.2    51  GLN51       0.2608
     42  OE1       12.6980   23.7170   -2.8140 O.2    51  GLN51      -0.2717
     43  NE2       11.3090   23.5400   -1.0610 N.am   51  GLN51      -0.0878
     44  N         13.7020   21.0230    3.5510 N.am   52  GLU52      -0.1966
     45  CA        13.0310   20.5270    4.7320 C.3    52  GLU52       0.1733
     46  C         13.1710   21.4810    5.8940 C.2    52  GLU52       0.2616
     47  O         14.0980   22.2850    5.9330 O.2    52  GLU52      -0.2715
     48  CB        13.5700   19.1360    5.1120 C.3    52  GLU52       0.0429
     49  CG        15.0850   19.0090    5.1500 C.3    52  GLU52       0.1163
     50  CD        15.5700   17.6500    5.6550 C.2    52  GLU52       0.3649
     51  OE1       14.9230   16.6190    5.3590 O.co2  52  GLU52      -0.2457
     52  OE2       16.6090   17.6120    6.3490 O.co2  52  GLU52      -0.2457
     53  N         12.2040   21.4270    6.7980 N.am   53  LEU53      -0.1977
     54  CA        12.2510   22.2190    8.0220 C.3    53  LEU53       0.1596
     55  C         13.3110   21.6230    8.9420 C.2    53  LEU53       0.2287
     56  O         13.2620   20.4380    9.2760 O.2    53  LEU53      -0.2864
     57  CB        10.8930   22.2010    8.7340 C.3    53  LEU53       0.0297
     58  CG        10.8910   22.6250   10.2160 C.3    53  LEU53       0.0022
     59  CD1       11.0660   24.1300   10.3400 C.3    53  LEU53       0.0001
     60  CD2        9.6030   22.1770   10.8910 C.3    53  LEU53       0.0001
     61  N         18.5760   28.3890    4.6420 N.3    87  LEU87      -0.1245
     62  CA        17.8000   29.5880    4.3640 C.3    87  LEU87       0.1561
     63  C         16.9300   29.9150    5.5910 C.2    87  LEU87       0.2260
     64  O         16.4570   29.0010    6.2760 O.2    87  LEU87      -0.2867
     65  CB        16.8710   29.3610    3.1610 C.3    87  LEU87       0.0270
     66  CG        17.5210   29.2820    1.7820 C.3    87  LEU87       0.0019
     67  CD1       16.4720   28.9030    0.7570 C.3    87  LEU87       0.0001
     68  CD2       18.1650   30.6170    1.4200 C.3    87  LEU87       0.0001
     69  N         13.3670   31.5780    6.6730 N.3    89  ARG89      -0.1245
     70  CA        12.0760   32.0210    6.1850 C.3    89  ARG89       0.1563
     71  C         11.3740   32.7880    7.3100 C.2    89  ARG89       0.2260
     72  O         11.1430   32.2400    8.3870 O.2    89  ARG89      -0.2867
     73  CB        11.2540   30.8090    5.7850 C.3    89  ARG89       0.0307
     74  CG        11.8610   29.9590    4.6740 C.3    89  ARG89       0.0489
     75  CD        10.8320   29.7790    3.5640 C.3    89  ARG89       0.2205
     76  NE        10.4550   28.3940    3.3370 N.pl3  89  ARG89      -0.0865
     77  CZ         9.3210   28.0080    2.7370 C.cat  89  ARG89       0.5346
     78  NH1        9.0960   26.7150    2.5540 N.pl3  89  ARG89       0.1354
     79  NH2        8.4120   28.8840    2.3440 N.pl3  89  ARG89       0.1354
     80  N          2.9860   26.0440    7.3470 N.3    95  ARG95      -0.1231
     81  CA         4.2160   25.2680    7.4690 C.3    95  ARG95       0.1694
     82  C          4.8660   24.9750    6.1130 C.2    95  ARG95       0.2593
     83  O          6.0850   25.1190    5.9660 O.2    95  ARG95      -0.2718
     84  CB         3.9120   23.9520    8.1980 C.3    95  ARG95       0.0321
     85  CG         5.0780   22.9710    8.3020 C.3    95  ARG95       0.0489
     86  CD         4.6140   21.6630    8.9280 C.3    95  ARG95       0.2205
     87  NE         5.0170   20.5160    8.1160 N.pl3  95  ARG95      -0.0865
     88  CZ         4.1920   19.8450    7.2980 C.cat  95  ARG95       0.5346
     89  NH1        4.6690   18.8480    6.5800 N.pl3  95  ARG95       0.1354
     90  NH2        2.9000   20.1400    7.2090 N.pl3  95  ARG95       0.1354
     91  N          4.0560   24.5960    5.1060 N.am   96  THR96      -0.1939
     92  CA         4.6280   24.1240    3.8380 C.3    96  THR96       0.2028
     93  C          4.5200   25.0540    2.6110 C.2    96  THR96       0.2642
     94  O          5.3470   24.9600    1.6900 O.2    96  THR96      -0.2714
     95  CB         4.0340   22.7560    3.4700 C.3    96  THR96       0.1808
     96  OG1        2.6070   22.8490    3.4100 O.3    96  THR96      -0.2208
     97  CG2        4.4180   21.7140    4.5100 C.3    96  THR96       0.0379
     98  N          3.5380   25.9380    2.5640 N.am   97  ARG97      -0.1963
     99  CA         3.3800   26.7390    1.3650 C.3    97  ARG97       0.1729
    100  C          4.3090   27.9400    1.3170 C.2    97  ARG97       0.2616
    101  O          4.7180   28.4780    2.3340 O.2    97  ARG97      -0.2715
    102  CB         1.9240   27.1970    1.1850 C.3    97  ARG97       0.0348
    103  CG         1.5400   28.4300    1.9750 C.3    97  ARG97       0.0492
    104  CD         0.1810   29.0000    1.5560 C.3    97  ARG97       0.2205
    105  NE        -0.3450   29.9130    2.5780 N.pl3  97  ARG97      -0.0865
    106  CZ        -0.4670   31.2410    2.4150 C.cat  97  ARG97       0.5346
    107  NH1       -0.9060   31.9780    3.4420 N.pl3  97  ARG97       0.1354
    108  NH2       -0.1670   31.8270    1.2410 N.pl3  97  ARG97       0.1354
    109  N          4.6660   28.3230    0.1110 N.am   98  TYR98      -0.1974
    110  CA         5.4250   29.5200   -0.1060 C.3    98  TYR98       0.1639
    111  C          4.4510   30.6850   -0.0440 C.2    98  TYR98       0.2290
    112  O          3.6520   30.8860   -0.9650 O.2    98  TYR98      -0.2864
    113  CB         6.0810   29.4690   -1.4660 C.3    98  TYR98       0.0560
    114  CG         6.7300   30.7630   -1.8100 C.ar   98  TYR98      -0.0198
    115  CD1        7.7110   31.2940   -0.9850 C.ar   98  TYR98      -0.0009
    116  CD2        6.2810   31.5230   -2.8860 C.ar   98  TYR98      -0.0009
    117  CE1        8.2210   32.5510   -1.2090 C.ar   98  TYR98       0.0417
    118  CE2        6.7870   32.7880   -3.1200 C.ar   98  TYR98       0.0417
    119  CZ         7.7510   33.2970   -2.2750 C.ar   98  TYR98       0.1957
    120  OH         8.2460   34.5580   -2.4880 O.3    98  TYR98      -0.2866
    121  N          3.5140   33.7900   -0.7830 N.3   100  ARG100     -0.1245
    122  CA         3.7510   34.8910   -1.7090 C.3   100  ARG100      0.1563
    123  C          3.2810   36.1990   -1.1410 C.2   100  ARG100      0.2260
    124  O          2.1630   36.2860   -0.6450 O.2   100  ARG100     -0.2867
    125  CB         2.9970   34.6520   -3.0190 C.3   100  ARG100      0.0307
    126  CG         3.8050   34.0450   -4.1470 C.3   100  ARG100      0.0489
    127  CD         2.9060   33.7380   -5.3410 C.3   100  ARG100      0.2205
    128  NE         2.3370   34.9550   -5.8840 N.pl3 100  ARG100     -0.0865
    129  CZ         1.0680   35.0850   -6.2580 C.cat 100  ARG100      0.5346
    130  NH1        0.6610   36.2490   -6.7390 N.pl3 100  ARG100      0.1354
    131  NH2        0.2080   34.0770   -6.1450 N.pl3 100  ARG100      0.1354
    132  N         12.4560   35.4020    2.5200 N.3   105  ILE105     -0.1231
    133  CA        13.4930   34.3880    2.6520 C.3   105  ILE105      0.1692
    134  C         14.8420   35.0790    2.6530 C.2   105  ILE105      0.2593
    135  O         15.0310   36.0440    1.9100 O.2   105  ILE105     -0.2718
    136  CB        13.4190   33.3850    1.4770 C.3   105  ILE105      0.0266
    137  CG1       12.0250   32.7670    1.4380 C.3   105  ILE105      0.0019
    138  CG2       14.4810   32.2980    1.6160 C.3   105  ILE105      0.0020
    139  CD1       11.8730   31.6580    0.4210 C.3   105  ILE105      0.0001
    140  N         15.7660   34.6350    3.4980 N.am  106  SER106     -0.1938
    141  CA        17.0910   35.2470    3.5190 C.3   106  SER106      0.2055
    142  C         18.1830   34.2170    3.5490 C.2   106  SER106      0.2642
    143  O         18.0160   33.0940    4.0520 O.2   106  SER106     -0.2714
    144  CB        17.3060   36.1670    4.7240 C.3   106  SER106      0.2130
    145  OG        16.3780   37.2270    4.7730 O.3   106  SER106     -0.2179
    146  N         19.3020   34.6180    2.9960 N.am  107  MET107     -0.1976
    147  CA        20.4810   33.8120    3.0250 C.3   107  MET107      0.1605
    148  C         21.3200   34.2620    4.1910 C.2   107  MET107      0.2287
    149  O         21.1660   35.3990    4.6720 O.2   107  MET107     -0.2864
    150  CB        21.2580   33.9620    1.7280 C.3   107  MET107      0.0413
    151  CG        20.5260   33.4110    0.5190 C.3   107  MET107      0.0598
    152  SD        21.6110   33.2340   -0.9110 S.3   107  MET107     -0.1393
    153  CE        22.0860   34.9420   -1.2100 C.3   107  MET107      0.0692
@<TRIPOS>BOND
     1   130   129    1
     2   129   131    1
     3   129   128    2
     4   128   127    1
     5   127   126    1
     6   126   125    1
     7   118   116   ar
     8   118   119   ar
     9   125   122    1
    10   116   114   ar
    11    42    41    2
    12    34    33    1
    13   120   119    1
    14   119   117   ar
    15   114   113    1
    16   114   115   ar
    17    33    30    1
    18   122   123    1
    19   122   121    1
    20    41    43   am
    21    41    40    1
    22   113   110    1
    23   153   152    1
    24   117   115   ar
    25   123   124    2
    26   112   111    2
    27   152   151    1
    28    40    39    1
    29    23    22    2
    30    30    29    1
    31    30    31    1
    32    28    27    1
    33   110   111    1
    34   110   109    1
    35    26    27    1
    36    26    25    1
    37    22    29   am
    38    22    21    1
    39   109   100   am
    40    39    36    1
    41    24    25    1
    42    24    21    1
    43    31    32    2
    44   139   137    1
    45   151   150    1
    46    35    36    1
    47    21    20    1
    48    67    66    1
    49    36    37    1
    50   102    99    1
    51   102   103    1
    52   108   106    1
    53   100    99    1
    54   100   101    2
    55    99    98    1
    56    68    66    1
    57   137   136    1
    58   136   138    1
    59   136   133    1
    60   104   103    1
    61   104   105    1
    62    94    93    2
    63   150   147    1
    64    66    65    1
    65   135   134    2
    66    18    19   ar
    67    18    16   ar
    68    38    37    2
    69    79    77    1
    70    37    44   am
    71   106   105    2
    72   106   107    1
    73    19    17   ar
    74   132   133    1
    75    78    77    1
    76    98    93   am
    77    93    92    1
    78   133   134    1
    79   134   140   am
    80    77    76    2
    81    16    14   ar
    82   146   147    1
    83   146   142   am
    84   147   148    1
    85    65    62    1
    86    76    75    1
    87    96    95    1
    88    95    92    1
    89    95    97    1
    90   140   141    1
    91   141   142    1
    92   141   144    1
    93   142   143    2
    94    44    45    1
    95    75    74    1
    96    17    15   ar
    97    92    91    1
    98   148   149    2
    99    14    15   ar
   100    14    13    1
   101    62    61    1
   102    62    63    1
   103    74    73    1
   104   144   145    1
   105    45    48    1
   106    45    46    1
   107    12    11    2
   108    91    82   am
   109    48    49    1
   110    49    50    1
   111    13    10    1
   112    51    50   ar
   113    11    10    1
   114    63    64    2
   115    50    52   ar
   116    73    70    1
   117    46    47    2
   118    46    53   am
   119    83    82    2
   120    82    81    1
   121    10     9    1
   122    70    69    1
   123    70    71    1
   124    89    88    1
   125    53    54    1
   126    90    88    1
   127     7     8    1
   128     7     6    1
   129    88    87    2
   130    71    72    2
   131    80    81    1
   132    81    84    1
   133    54    57    1
   134    54    55    1
   135    87    86    1
   136    84    85    1
   137    85    86    1
   138     6     5    1
   139     4     3    2
   140    57    58    1
   141    55    56    2
   142     5     2    1
   143     3     2    1
   144     2     1    1
   145    58    59    1
   146    58    60    1
