@<TRIPOS>MOLECULE
tmp/1g37A01.pdb
 221 219 0 0 0
SMALL
GASTEIGER

@<TRIPOS>ATOM
      1  N         12.2040   21.4270    6.7980 N.3    53  LEU53      -0.1231
      2  CA        12.2510   22.2190    8.0220 C.3    53  LEU53       0.1693
      3  C         13.3110   21.6230    8.9420 C.2    53  LEU53       0.2592
      4  O         13.2620   20.4380    9.2760 O.2    53  LEU53      -0.2718
      5  CB        10.8930   22.2010    8.7340 C.3    53  LEU53       0.0284
      6  CG        10.8910   22.6250   10.2160 C.3    53  LEU53       0.0019
      7  CD1       11.0660   24.1300   10.3400 C.3    53  LEU53       0.0001
      8  CD2        9.6030   22.1770   10.8910 C.3    53  LEU53       0.0001
      9  N         14.2570   22.4460    9.3290 N.am   54  LEU54      -0.1966
     10  CA        15.3470   22.0170   10.1750 C.3    54  LEU54       0.1728
     11  C         15.0840   22.3180   11.6520 C.2    54  LEU54       0.2616
     12  O         15.3150   21.4820   12.5190 O.2    54  LEU54      -0.2715
     13  CB        16.6040   22.7480    9.7280 C.3    54  LEU54       0.0311
     14  CG        17.7210   21.9170    9.1240 C.3    54  LEU54       0.0022
     15  CD1       17.1720   20.8030    8.2460 C.3    54  LEU54       0.0001
     16  CD2       18.6170   22.8250    8.3210 C.3    54  LEU54       0.0001
     17  N         14.5750   23.5110   11.9220 N.am   55  CYS55      -0.1968
     18  CA        14.4480   23.9860   13.2880 C.3    55  CYS55       0.1712
     19  C         13.7090   25.3140   13.2830 C.2    55  CYS55       0.2296
     20  O         13.5040   25.9120   12.2170 O.2    55  CYS55      -0.2864
     21  CB        15.8560   24.2700   13.8510 C.3    55  CYS55       0.0983
     22  SG        16.7010   22.9300   14.7650 S.3    55  CYS55      -0.0798
     23  N         22.6990   23.3710   18.5280 N.3    70  HIS70      -0.1241
     24  CA        22.5480   21.9720   18.0850 C.3    70  HIS70       0.1621
     25  C         21.7530   21.8490   16.7860 C.2    70  HIS70       0.2264
     26  O         21.7450   20.7850   16.1590 O.2    70  HIS70      -0.2867
     27  CB        21.9110   21.0880   19.1820 C.3    70  HIS70       0.0745
     28  CG        20.4150   21.0870   19.2220 C.ar   70  HIS70       0.0817
     29  ND1       19.6820   21.9110   20.0480 N.ar   70  HIS70      -0.2268
     30  CD2       19.4970   20.3430   18.5620 C.ar   70  HIS70       0.1154
     31  CE1       18.3860   21.7010   19.9230 C.ar   70  HIS70       0.1986
     32  NE2       18.2720   20.7570   19.0290 N.ar   70  HIS70      -0.2212
     33  N         25.9960   19.2400   15.6530 N.3    74  TYR74      -0.1241
     34  CA        25.8030   18.1520   16.5960 C.3    74  TYR74       0.1605
     35  C         26.5460   16.9370   16.0880 C.2    74  TYR74       0.2264
     36  O         25.9520   16.0140   15.5190 O.2    74  TYR74      -0.2867
     37  CB        24.3300   17.8230   16.7820 C.3    74  TYR74       0.0534
     38  CG        24.0800   16.9690   17.9920 C.ar   74  TYR74      -0.0201
     39  CD1       24.4990   17.3890   19.2570 C.ar   74  TYR74      -0.0009
     40  CD2       23.4660   15.7240   17.8820 C.ar   74  TYR74      -0.0009
     41  CE1       24.3210   16.5830   20.3840 C.ar   74  TYR74       0.0417
     42  CE2       23.2820   14.9100   18.9980 C.ar   74  TYR74       0.0417
     43  CZ        23.7170   15.3450   20.2450 C.ar   74  TYR74       0.1957
     44  OH        23.5970   14.5300   21.3320 O.3    74  TYR74      -0.2866
     45  N         25.5460   13.1080   15.6560 N.3    77  TRP77      -0.1241
     46  CA        24.6360   12.7860   14.5470 C.3    77  TRP77       0.1605
     47  C         25.1790   13.2860   13.2360 C.2    77  TRP77       0.2264
     48  O         24.4160   13.4860   12.2990 O.2    77  TRP77      -0.2867
     49  CB        23.2520   13.4100   14.7530 C.3    77  TRP77       0.0550
     50  CG        22.5020   12.8400   15.9080 C.ar   77  TRP77       0.0003
     51  CD1       22.8070   11.7000   16.6110 C.ar   77  TRP77       0.0946
     52  CD2       21.3260   13.3990   16.5230 C.ar   77  TRP77       0.0152
     53  NE1       21.8930   11.5350   17.6130 N.ar   77  TRP77      -0.2442
     54  CE2       20.9700   12.5440   17.6000 C.ar   77  TRP77       0.0810
     55  CE3       20.5390   14.5360   16.2740 C.ar   77  TRP77       0.0012
     56  CZ2       19.8640   12.7890   18.4250 C.ar   77  TRP77       0.0191
     57  CZ3       19.4380   14.7770   17.0970 C.ar   77  TRP77       0.0001
     58  CH2       19.1140   13.9100   18.1550 C.ar   77  TRP77       0.0015
     59  N         26.0090   16.1050   12.3190 N.3    79  LYS79      -0.1245
     60  CA        25.3620   17.3350   11.8830 C.3    79  LYS79       0.1561
     61  C         26.3210   18.5090   11.9750 C.2    79  LYS79       0.2260
     62  O         26.8790   18.7710   13.0340 O.2    79  LYS79      -0.2867
     63  CB        24.1300   17.6370   12.7240 C.3    79  LYS79       0.0271
     64  CG        23.4890   18.9680   12.3610 C.3    79  LYS79       0.0035
     65  CD        22.4410   19.3830   13.3740 C.3    79  LYS79       0.0206
     66  CE        21.2520   18.4460   13.3760 C.3    79  LYS79       0.1093
     67  NZ        20.2640   18.8360   14.4200 N.3    79  LYS79      -0.1314
     68  N         28.2780   19.9990   23.4210 N.3   119  TRP119     -0.1227
     69  CA        27.5430   18.9660   22.6910 C.3   119  TRP119      0.1737
     70  C         27.9610   17.5800   23.1140 C.2   119  TRP119      0.2595
     71  O         27.2910   16.6010   22.7830 O.2   119  TRP119     -0.2718
     72  CB        27.7520   19.1050   21.1770 C.3   119  TRP119      0.0564
     73  CG        29.1880   19.1310   20.7330 C.ar  119  TRP119      0.0003
     74  CD1       29.9240   20.2500   20.4310 C.ar  119  TRP119      0.0946
     75  CD2       30.0550   17.9880   20.4700 C.ar  119  TRP119      0.0152
     76  NE1       31.1670   19.8680   20.0030 N.ar  119  TRP119     -0.2442
     77  CE2       31.2940   18.5030   20.0080 C.ar  119  TRP119      0.0810
     78  CE3       29.9050   16.5890   20.5710 C.ar  119  TRP119      0.0012
     79  CZ2       32.3750   17.6710   19.6460 C.ar  119  TRP119      0.0191
     80  CZ3       30.9770   15.7730   20.2100 C.ar  119  TRP119      0.0001
     81  CH2       32.1900   16.3090   19.7550 C.ar  119  TRP119      0.0015
     82  N         29.0760   17.4970   23.8230 N.am  120  ARG120     -0.1966
     83  CA        29.5870   16.2010   24.2570 C.3   120  ARG120      0.1729
     84  C         28.7830   15.6230   25.3970 C.2   120  ARG120      0.2616
     85  O         28.5540   14.4250   25.4540 O.2   120  ARG120     -0.2715
     86  CB        31.0540   16.3070   24.6770 C.3   120  ARG120      0.0348
     87  CG        31.8820   17.1660   23.7540 C.3   120  ARG120      0.0492
     88  CD        33.3480   16.8510   23.8890 C.3   120  ARG120      0.2205
     89  NE        33.6570   15.5550   23.3090 N.pl3 120  ARG120     -0.0865
     90  CZ        34.4740   15.4030   22.2790 C.cat 120  ARG120      0.5346
     91  NH1       34.6890   14.2010   21.8000 N.pl3 120  ARG120      0.1354
     92  NH2       35.0770   16.4550   21.7350 N.pl3 120  ARG120      0.1354
     93  N         28.3020   16.4720   26.2740 N.am  121  GLU121     -0.1963
     94  CA        27.6630   15.9810   27.4670 C.3   121  GLU121      0.1733
     95  C         26.1860   16.3540   27.6480 C.2   121  GLU121      0.2616
     96  O         25.3100   15.4760   27.6640 O.2   121  GLU121     -0.2715
     97  CB        28.4680   16.4730   28.6650 C.3   121  GLU121      0.0429
     98  CG        27.9500   15.9830   30.0020 C.3   121  GLU121      0.1163
     99  CD        28.6360   16.6330   31.1930 C.2   121  GLU121      0.3649
    100  OE1       29.6240   17.4040   30.9910 O.co2 121  GLU121     -0.2457
    101  OE2       28.1830   16.3670   32.3360 O.co2 121  GLU121     -0.2457
    102  N         25.8980   17.6430   27.8120 N.am  122  ASN122     -0.1958
    103  CA        24.5500   18.0280   28.2210 C.3   122  ASN122      0.1819
    104  C         23.9320   19.1880   27.4280 C.2   122  ASN122      0.2621
    105  O         22.9020   19.7210   27.8560 O.2   122  ASN122     -0.2715
    106  CB        24.5700   18.3730   29.7240 C.3   122  ASN122      0.1195
    107  CG        25.6080   19.4220   30.0560 C.2   122  ASN122      0.2630
    108  OD1       26.3170   19.9220   29.1750 O.2   122  ASN122     -0.2716
    109  ND2       25.7170   19.7580   31.3170 N.am  122  ASN122     -0.0877
    110  N         24.5150   19.5470   26.2780 N.am  123  LEU123     -0.1977
    111  CA        24.0190   20.6880   25.4750 C.3   123  LEU123      0.1596
    112  C         24.0520   21.9940   26.2620 C.2   123  LEU123      0.2287
    113  O         23.2140   22.8810   26.0520 O.2   123  LEU123     -0.2864
    114  CB        22.5830   20.4730   24.9400 C.3   123  LEU123      0.0297
    115  CG        22.4200   19.5430   23.7350 C.3   123  LEU123      0.0022
    116  CD1       21.0160   19.6820   23.1660 C.3   123  LEU123      0.0001
    117  CD2       23.4490   19.8680   22.6830 C.3   123  LEU123      0.0001
    118  N          6.3270   18.4990   15.0520 N.3   170  ASN170     -0.1240
    119  CA         5.3360   17.4430   15.0980 C.3   170  ASN170      0.1653
    120  C          4.3840   17.6020   16.2410 C.2   170  ASN170      0.2266
    121  O          4.7190   18.1980   17.2880 O.2   170  ASN170     -0.2867
    122  CB         6.0100   16.0790   15.1870 C.3   170  ASN170      0.1155
    123  CG         6.8910   15.7700   13.9920 C.2   170  ASN170      0.2627
    124  OD1        7.7620   14.9170   14.0690 O.2   170  ASN170     -0.2716
    125  ND2        6.6820   16.4550   12.8800 N.am  170  ASN170     -0.0877
    126  N         20.5550   13.4590   33.0550 N.3   199  ILE199     -0.1245
    127  CA        21.4530   14.4600   32.4210 C.3   199  ILE199      0.1561
    128  C         21.8420   15.5260   33.4490 C.2   199  ILE199      0.2260
    129  O         21.0030   15.9600   34.2480 O.2   199  ILE199     -0.2867
    130  CB        20.7630   15.1620   31.1880 C.3   199  ILE199      0.0252
    131  CG1       20.3580   14.1220   30.1310 C.3   199  ILE199      0.0019
    132  CG2       21.6990   16.1940   30.5580 C.3   199  ILE199      0.0019
    133  CD1       21.5400   13.4560   29.4560 C.3   199  ILE199      0.0001
    134  N          4.1470   20.3060   25.0320 N.3   219  ASP219     -0.1225
    135  CA         5.5830   20.3200   24.9390 C.3   219  ASP219      0.1805
    136  C          6.0100   20.6340   23.5190 C.2   219  ASP219      0.2598
    137  O          5.2070   20.5950   22.5790 O.2   219  ASP219     -0.2718
    138  CB         6.1190   18.9260   25.3630 C.3   219  ASP219      0.1424
    139  CG         7.6290   18.8330   25.5680 C.2   219  ASP219      0.3668
    140  OD1        8.2920   19.8760   25.7700 O.co2 219  ASP219     -0.2456
    141  OD2        8.1650   17.6960   25.5310 O.co2 219  ASP219     -0.2456
    142  N          7.2630   20.9840   23.3580 N.am  220  ALA220     -0.1966
    143  CA         7.8220   21.1040   22.0420 C.3   220  ALA220      0.1728
    144  C          8.1550   19.6810   21.5390 C.2   220  ALA220      0.2616
    145  O          8.3090   18.7400   22.3300 O.2   220  ALA220     -0.2715
    146  CB         9.0790   21.9660   22.0780 C.3   220  ALA220      0.0334
    147  N          8.2790   19.5190   20.2440 N.am  221  CYS221     -0.1954
    148  CA         8.5910   18.2200   19.6890 C.3   221  CYS221      0.1843
    149  C          9.4760   18.3940   18.4640 C.2   221  CYS221      0.2625
    150  O          9.9500   19.5030   18.2200 O.2   221  CYS221     -0.2714
    151  CB         7.2970   17.4650   19.3690 C.3   221  CYS221      0.0997
    152  SG         7.4910   15.6430   19.3020 S.3   221  CYS221     -0.0797
    153  N          9.6960   17.3270   17.6960 N.am  222  GLU222     -0.1963
    154  CA        10.6340   17.3830   16.5870 C.3   222  GLU222      0.1733
    155  C         10.2590   18.4450   15.5700 C.2   222  GLU222      0.2616
    156  O          9.1640   18.4330   15.0280 O.2   222  GLU222     -0.2715
    157  CB        10.7420   16.0260   15.9010 C.3   222  GLU222      0.0429
    158  CG        12.0500   15.8680   15.1580 C.3   222  GLU222      0.1163
    159  CD        12.1150   14.6610   14.2190 C.2   222  GLU222      0.3649
    160  OE1       13.0980   14.5770   13.4270 O.co2 222  GLU222     -0.2457
    161  OE2       11.1960   13.7970   14.2620 O.co2 222  GLU222     -0.2457
    162  N         11.1910   19.3470   15.3090 N.am  223  GLY223     -0.1955
    163  CA        10.9400   20.4230   14.3790 C.3   223  GLY223      0.1869
    164  C         10.7760   21.7480   15.0900 C.2   223  GLY223      0.2309
    165  O         10.7560   22.7870   14.4360 O.2   223  GLY223     -0.2863
    166  N         12.8150   22.5900   17.9110 N.3   225  SER225     -0.1217
    167  CA        14.1290   22.9940   18.4410 C.3   225  SER225      0.1889
    168  C         14.5970   24.3300   17.8840 C.2   225  SER225      0.2288
    169  O         14.3640   24.6200   16.7160 O.2   225  SER225     -0.2866
    170  CB        15.1780   21.9290   18.0970 C.3   225  SER225      0.2089
    171  OG        14.9360   20.7750   18.8940 O.3   225  SER225     -0.2183
    172  N         14.1770   26.5720   22.6920 N.3   245  VAL245     -0.1231
    173  CA        13.8840   25.1440   22.7550 C.3   245  VAL245      0.1692
    174  C         15.1890   24.3610   22.5410 C.2   245  VAL245      0.2593
    175  O         15.8280   24.4340   21.4610 O.2   245  VAL245     -0.2718
    176  CB        12.8190   24.7260   21.6920 C.3   245  VAL245      0.0266
    177  CG1       12.5580   23.2100   21.7560 C.3   245  VAL245      0.0020
    178  CG2       11.5220   25.4930   21.9210 C.3   245  VAL245      0.0020
    179  N         15.6090   23.6400   23.5730 N.am  246  SER246     -0.1938
    180  CA        16.8950   22.9720   23.5180 C.3   246  SER246      0.2055
    181  C         16.7780   21.4470   23.4700 C.2   246  SER246      0.2643
    182  O         17.1160   20.8440   22.4660 O.2   246  SER246     -0.2714
    183  CB        17.7700   23.4110   24.7070 C.3   246  SER246      0.2130
    184  OG        19.0760   22.8910   24.5740 O.3   246  SER246     -0.2179
    185  N         16.3080   20.8280   24.5400 N.am  247  TRP247     -0.1959
    186  CA        16.2320   19.3720   24.5620 C.3   247  TRP247      0.1771
    187  C         15.1380   18.8700   25.4670 C.2   247  TRP247      0.2620
    188  O         14.5960   19.5990   26.3070 O.2   247  TRP247     -0.2715
    189  CB        17.6070   18.7420   24.9520 C.3   247  TRP247      0.0590
    190  CG        18.1020   19.0570   26.3450 C.ar  247  TRP247      0.0006
    191  CD1       18.8750   20.1250   26.7080 C.ar  247  TRP247      0.0946
    192  CD2       17.9330   18.2560   27.5510 C.ar  247  TRP247      0.0152
    193  NE1       19.1910   20.0300   28.0340 N.ar  247  TRP247     -0.2442
    194  CE2       18.6430   18.9140   28.5900 C.ar  247  TRP247      0.0810
    195  CE3       17.2580   17.0560   27.8540 C.ar  247  TRP247      0.0012
    196  CZ2       18.7020   18.4200   29.9080 C.ar  247  TRP247      0.0191
    197  CZ3       17.3140   16.5700   29.1580 C.ar  247  TRP247      0.0001
    198  CH2       18.0310   17.2500   30.1710 C.ar  247  TRP247      0.0015
    199  N         14.7900   17.6290   25.2600 N.am  248  GLY248     -0.1940
    200  CA        13.7500   17.0050   26.0350 C.3   248  GLY248      0.2014
    201  C         13.7270   15.5420   25.6890 C.2   248  GLY248      0.2639
    202  O         13.9760   15.1800   24.5510 O.2   248  GLY248     -0.2714
    203  N         13.4630   14.7070   26.6520 N.am  249  GLU249     -0.1963
    204  CA        13.4580   13.2700   26.4130 C.3   249  GLU249      0.1733
    205  C         12.0830   12.8350   25.9340 C.2   249  GLU249      0.2617
    206  O         11.1650   12.5970   26.7350 O.2   249  GLU249     -0.2715
    207  CB        13.9060   12.5710   27.7030 C.3   249  GLU249      0.0429
    208  CG        15.3110   13.0340   28.1250 C.3   249  GLU249      0.1163
    209  CD        15.5730   12.9930   29.6280 C.2   249  GLU249      0.3649
    210  OE1       16.4960   12.2740   30.0340 O.co2 249  GLU249     -0.2457
    211  OE2       14.8730   13.6940   30.4030 O.co2 249  GLU249     -0.2457
    212  N         11.9470   12.7710   24.6060 N.am  250  GLY250     -0.1940
    213  CA        10.6600   12.5040   24.0060 C.3   250  GLY250      0.2014
    214  C          9.8650   13.7990   23.8820 C.2   250  GLY250      0.2639
    215  O         10.4440   14.8950   23.9080 O.2   250  GLY250     -0.2714
    216  N          8.5610   13.6860   23.7320 N.am  251  CYS251     -0.1967
    217  CA         7.6970   14.8600   23.6600 C.3   251  CYS251      0.1712
    218  C          6.4770   14.6240   24.4900 C.2   251  CYS251      0.2296
    219  O          5.7610   13.6460   24.2620 O.2   251  CYS251     -0.2864
    220  CB         7.2240   15.1350   22.2410 C.3   251  CYS251      0.0983
    221  SG         8.5150   15.1400   21.0020 S.3   251  CYS251     -0.0798
@<TRIPOS>BOND
     1     1     2    1
     2     2     5    1
     3     2     3    1
     4    15    14    1
     5    16    14    1
     6     5     6    1
     7     3     4    2
     8     3     9   am
     9    14    13    1
    10     9    10    1
    11    13    10    1
    12    10    11    1
    13     6     7    1
    14     6     8    1
    15    11    17   am
    16    11    12    2
    17    60    61    1
    18    60    59    1
    19    60    63    1
    20    17    18    1
    21    61    62    2
    22    20    19    2
    23    48    47    2
    24    64    63    1
    25    64    65    1
    26   125   123   am
    27    47    46    1
    28    19    18    1
    29    18    21    1
    30    65    66    1
    31    66    67    1
    32   160   159   ar
    33    21    22    1
    34   123   124    2
    35   123   122    1
    36   159   161   ar
    37   159   158    1
    38   163   164    1
    39   163   162    1
    40   165   164    2
    41    46    49    1
    42    46    45    1
    43    49    50    1
    44   156   155    2
    45   118   119    1
    46   119   122    1
    47   119   120    1
    48   158   157    1
    49   162   155   am
    50    36    35    2
    51   155   154    1
    52    33    34    1
    53   157   154    1
    54    50    52   ar
    55    50    51   ar
    56    35    34    1
    57    26    25    2
    58   120   121    2
    59    55    52   ar
    60    55    57   ar
    61    52    54   ar
    62   154   153    1
    63    34    37    1
    64    51    53   ar
    65   169   168    2
    66    37    38    1
    67    25    24    1
    68    57    58   ar
    69    54    53   ar
    70    54    56   ar
    71   153   149   am
    72    40    38   ar
    73    40    42   ar
    74   168   167    1
    75   166   167    1
    76    38    39   ar
    77    24    23    1
    78    24    27    1
    79   170   167    1
    80   170   171    1
    81    58    56   ar
    82   150   149    2
    83   149   148    1
    84    30    32   ar
    85    30    28   ar
    86    42    43   ar
    87    32    31   ar
    88    27    28    1
    89    28    29   ar
    90    39    41   ar
    91   152   151    1
    92   152   221    1
    93   151   148    1
    94    79    81   ar
    95    79    77   ar
    96   148   147    1
    97    81    80   ar
    98    31    29   ar
    99    76    77   ar
   100    76    74   ar
   101    77    75   ar
   102    80    78   ar
   103   147   144   am
   104    43    41   ar
   105    43    44    1
   106    74    73   ar
   107    75    78   ar
   108    75    73   ar
   109    73    72    1
   110   221   220    1
   111    72    69    1
   112   175   174    2
   113   144   143    1
   114   144   145    2
   115   176   177    1
   116   176   178    1
   117   176   173    1
   118    92    90    1
   119    91    90    1
   120   143   146    1
   121   143   142    1
   122   220   217    1
   123    90    89    2
   124   182   181    2
   125   174   173    1
   126   174   179   am
   127   137   136    2
   128   117   115    1
   129    69    70    1
   130    69    68    1
   131   172   173    1
   132    71    70    2
   133    70    82   am
   134   116   115    1
   135    89    88    1
   136   142   136   am
   137   181   180    1
   138   181   185   am
   139   180   179    1
   140   180   183    1
   141   136   135    1
   142   217   216    1
   143   217   218    1
   144   216   214   am
   145   115   114    1
   146    87    88    1
   147    87    86    1
   148    82    83    1
   149   214   215    2
   150   214   213    1
   151   213   212    1
   152    83    86    1
   153    83    84    1
   154   219   218    2
   155   185   186    1
   156   202   201    2
   157   186   189    1
   158   186   187    1
   159   184   183    1
   160   212   205   am
   161   135   134    1
   162   135   138    1
   163   114   111    1
   164   189   190    1
   165   199   187   am
   166   199   200    1
   167   138   139    1
   168    84    85    2
   169    84    93   am
   170   187   188    2
   171   111   112    1
   172   111   110    1
   173   141   139   ar
   174   139   140   ar
   175   201   200    1
   176   201   203   am
   177   205   204    1
   178   205   206    2
   179   113   112    2
   180    93    94    1
   181   110   104   am
   182   190   191   ar
   183   190   192   ar
   184   204   203    1
   185   204   207    1
   186   191   193   ar
   187   104   105    2
   188   104   103    1
   189    94    95    1
   190    94    97    1
   191   192   195   ar
   192   192   194   ar
   193    95    96    2
   194    95   102   am
   195   207   208    1
   196   102   103    1
   197   195   197   ar
   198   193   194   ar
   199   208   209    1
   200   103   106    1
   201   194   196   ar
   202    97    98    1
   203   197   198   ar
   204   108   107    2
   205   133   131    1
   206   209   210   ar
   207   209   211   ar
   208   106   107    1
   209   196   198   ar
   210    98    99    1
   211   107   109   am
   212   131   130    1
   213   132   130    1
   214   100    99   ar
   215   130   127    1
   216    99   101   ar
   217   127   126    1
   218   127   128    1
   219   128   129    2
