@<TRIPOS>MOLECULE
tmp/1g3bA00.pdb
 131 132 0 0 0
SMALL
GASTEIGER

@<TRIPOS>ATOM
      1  N         39.7180    7.3530   32.1220 N.3    40  HIS40      -0.1241
      2  CA        39.6880    6.3090   33.1420 C.3    40  HIS40       0.1621
      3  C         40.9590    6.2740   33.9860 C.2    40  HIS40       0.2264
      4  O         41.0540    5.5140   34.9460 O.2    40  HIS40      -0.2867
      5  CB        39.4000    4.9200   32.5300 C.3    40  HIS40       0.0745
      6  CG        40.5450    4.3190   31.7710 C.ar   40  HIS40       0.0817
      7  ND1       40.6930    4.4560   30.4070 N.ar   40  HIS40      -0.2268
      8  CD2       41.5750    3.5400   32.1830 C.ar   40  HIS40       0.1154
      9  CE1       41.7610    3.7860   30.0100 C.ar   40  HIS40       0.1986
     10  NE2       42.3140    3.2210   31.0690 N.ar   40  HIS40      -0.2212
     11  N         49.9100   -6.2750   20.8920 N.3   171  ASP171     -0.1225
     12  CA        48.8370   -5.3880   21.3270 C.3   171  ASP171      0.1805
     13  C         49.3050   -4.5110   22.4870 C.2   171  ASP171      0.2598
     14  O         50.3830   -4.7320   23.0440 O.2   171  ASP171     -0.2718
     15  CB        47.6600   -6.2710   21.7640 C.3   171  ASP171      0.1424
     16  CG        46.3910   -5.4960   22.0490 C.2   171  ASP171      0.3668
     17  OD1       46.2670   -4.3250   21.6340 O.co2 171  ASP171     -0.2456
     18  OD2       45.4950   -6.0880   22.6840 O.co2 171  ASP171     -0.2456
     19  N         48.5190   -3.4920   22.8250 N.am  172  SER172     -0.1938
     20  CA        48.8530   -2.6540   23.9700 C.3   172  SER172      0.2055
     21  C         48.1740   -3.4050   25.1090 C.2   172  SER172      0.2643
     22  O         47.4070   -4.3350   24.8570 O.2   172  SER172     -0.2714
     23  CB        48.2880   -1.2330   23.8150 C.3   172  SER172      0.2130
     24  OG        46.8940   -1.2370   23.5700 O.3   172  SER172     -0.2179
     25  N         48.4410   -3.0320   26.3550 N.am  173  CYS173     -0.1953
     26  CA        47.8310   -3.7550   27.4650 C.3   173  CYS173      0.1843
     27  C         47.6680   -2.8750   28.7010 C.2   173  CYS173      0.2625
     28  O         47.9710   -1.6780   28.6670 O.2   173  CYS173     -0.2714
     29  CB        48.6910   -4.9860   27.7840 C.3   173  CYS173      0.0997
     30  SG        47.9060   -6.2890   28.7900 S.3   173  CYS173     -0.0797
     31  N         47.1730   -3.4660   29.7830 N.am  174  GLN174     -0.1977
     32  CA        46.9740   -2.7340   31.0300 C.3   174  GLN174      0.1601
     33  C         48.2710   -2.0240   31.4080 C.2   174  GLN174      0.2287
     34  O         49.3350   -2.6390   31.4300 O.2   174  GLN174     -0.2864
     35  CB        46.5720   -3.6980   32.1470 C.3   174  GLN174      0.0394
     36  CG        46.2650   -3.0180   33.4720 C.3   174  GLN174      0.0908
     37  CD        45.0060   -2.1740   33.4180 C.2   174  GLN174      0.2608
     38  OE1       44.8640   -1.3040   32.5590 O.2   174  GLN174     -0.2717
     39  NE2       44.0830   -2.4250   34.3430 N.am  174  GLN174     -0.0878
     40  N         47.4990    2.1480   29.0920 N.3   177  SER177     -0.1217
     41  CA        46.3020    2.9810   29.1150 C.3   177  SER177      0.1889
     42  C         46.6180    4.4650   29.2420 C.2   177  SER177      0.2288
     43  O         47.4340    4.8620   30.0740 O.2   177  SER177     -0.2866
     44  CB        45.4200    2.5570   30.2900 C.3   177  SER177      0.2089
     45  OG        45.4400    1.1460   30.4310 O.3   177  SER177     -0.2183
     46  N         45.4140    5.1090   24.1900 N.3   191  VAL191     -0.1231
     47  CA        45.1680    3.7230   24.5900 C.3   191  VAL191      0.1692
     48  C         43.9760    3.7090   25.5490 C.2   191  VAL191      0.2593
     49  O         44.0300    4.2940   26.6340 O.2   191  VAL191     -0.2718
     50  CB        46.3950    3.1190   25.2910 C.3   191  VAL191      0.0266
     51  CG1       46.1000    1.6900   25.7100 C.3   191  VAL191      0.0020
     52  CG2       47.5980    3.1660   24.3540 C.3   191  VAL191      0.0020
     53  N         42.9020    3.0350   25.1510 N.am  192  SER192     -0.1938
     54  CA        41.6980    3.0020   25.9680 C.3   192  SER192      0.2055
     55  C         41.3300    1.6390   26.5460 C.2   192  SER192      0.2643
     56  O         41.4290    1.4310   27.7550 O.2   192  SER192     -0.2714
     57  CB        40.5210    3.5620   25.1580 C.3   192  SER192      0.2130
     58  OG        39.3740    3.7380   25.9740 O.3   192  SER192     -0.2179
     59  N         40.8980    0.7080   25.7010 N.am  193  TRP193     -0.1959
     60  CA        40.5220   -0.6060   26.2120 C.3   193  TRP193      0.1771
     61  C         40.6570   -1.7330   25.2040 C.2   193  TRP193      0.2620
     62  O         41.1610   -1.5430   24.1040 O.2   193  TRP193     -0.2715
     63  CB        39.0820   -0.5820   26.7410 C.3   193  TRP193      0.0590
     64  CG        38.0380   -0.2290   25.7050 C.ar  193  TRP193      0.0006
     65  CD1       37.7430    1.0170   25.2290 C.ar  193  TRP193      0.0946
     66  CD2       37.1580   -1.1370   25.0230 C.ar  193  TRP193      0.0152
     67  NE1       36.7330    0.9430   24.2950 N.ar  193  TRP193     -0.2442
     68  CE2       36.3580   -0.3670   24.1500 C.ar  193  TRP193      0.0810
     69  CE3       36.9710   -2.5260   25.0650 C.ar  193  TRP193      0.0012
     70  CZ2       35.3810   -0.9410   23.3220 C.ar  193  TRP193      0.0191
     71  CZ3       35.9970   -3.0970   24.2390 C.ar  193  TRP193      0.0001
     72  CH2       35.2180   -2.3030   23.3820 C.ar  193  TRP193      0.0015
     73  N         40.2000   -2.9120   25.6140 N.am  194  GLY194     -0.1940
     74  CA        40.2480   -4.0920   24.7720 C.3   194  GLY194      0.2014
     75  C         39.8720   -5.2990   25.6090 C.2   194  GLY194      0.2640
     76  O         39.8270   -5.2110   26.8370 O.2   194  GLY194     -0.2714
     77  N         39.5920   -6.4230   24.9590 N.am  195  SER195     -0.1935
     78  CA        39.2340   -7.6400   25.6790 C.3   195  SER195      0.2055
     79  C         40.5270   -8.4160   25.8940 C.2   195  SER195      0.2644
     80  O         41.0660   -9.0070   24.9590 O.2   195  SER195     -0.2714
     81  CB        38.2410   -8.4670   24.8570 C.3   195  SER195      0.2130
     82  OG        37.8090   -9.6050   25.5800 O.3   195  SER195     -0.2179
     83  N         41.0250   -8.4100   27.1270 N.am  196  GLY196     -0.1939
     84  CA        42.2760   -9.0860   27.4110 C.3   196  GLY196      0.2014
     85  C         43.3860   -8.3500   26.6770 C.2   196  GLY196      0.2639
     86  O         43.2480   -7.1590   26.3900 O.2   196  GLY196     -0.2714
     87  N         44.4780   -9.0430   26.3720 N.am  197  CYS197     -0.1967
     88  CA        45.5940   -8.4400   25.6460 C.3   197  CYS197      0.1712
     89  C         46.1990   -9.4060   24.6300 C.2   197  CYS197      0.2296
     90  O         46.5100  -10.5520   24.9580 O.2   197  CYS197     -0.2864
     91  CB        46.6890   -7.9940   26.6140 C.3   197  CYS197      0.0983
     92  SG        46.1850   -6.7050   27.7960 S.3   197  CYS197     -0.0798
     93  N         40.5880   -9.9090   18.7860 N.3   202  LYS202     -0.1231
     94  CA        40.2770   -8.9220   19.8180 C.3   202  LYS202      0.1678
     95  C         41.3490   -7.8330   19.8480 C.2   202  LYS202      0.2434
     96  O         42.1740   -7.7820   20.7580 O.2   202  LYS202     -0.2733
     97  CB        40.1930   -9.5980   21.1890 C.3   202  LYS202      0.0284
     98  CG        39.0710  -10.6130   21.3220 C.3   202  LYS202      0.0035
     99  CD        37.7070   -9.9520   21.1950 C.3   202  LYS202      0.0206
    100  CE        36.5880  -10.9680   21.3620 C.3   202  LYS202      0.1093
    101  NZ        35.2440  -10.3340   21.2360 N.3   202  LYS202     -0.1314
    102  N         41.3410   -6.9430   18.8490 N.am  203  PRO203     -0.2718
    103  CA        42.3240   -5.8580   18.7750 C.3   203  PRO203      0.1535
    104  C         42.1160   -4.7910   19.8460 C.2   203  PRO203      0.2599
    105  O         41.0860   -4.7600   20.5190 O.2   203  PRO203     -0.2715
    106  CB        42.1170   -5.3100   17.3680 C.3   203  PRO203      0.0310
    107  CG        40.6320   -5.4670   17.1850 C.3   203  PRO203      0.0237
    108  CD        40.3790   -6.8600   17.7340 C.3   203  PRO203      0.0939
    109  N         43.1010   -3.9140   19.9990 N.am  204  GLY204     -0.1941
    110  CA        42.9780   -2.8550   20.9790 C.3   204  GLY204      0.2014
    111  C         42.0270   -1.7850   20.4800 C.2   204  GLY204      0.2639
    112  O         41.8920   -1.5800   19.2730 O.2   204  GLY204     -0.2714
    113  N         41.3520   -1.1090   21.4040 N.am  205  VAL205     -0.1963
    114  CA        40.4220   -0.0500   21.0420 C.3   205  VAL205      0.1727
    115  C         41.0060    1.2620   21.5470 C.2   205  VAL205      0.2616
    116  O         41.5180    1.3300   22.6660 O.2   205  VAL205     -0.2715
    117  CB        39.0360   -0.2830   21.6640 C.3   205  VAL205      0.0290
    118  CG1       38.0820    0.8200   21.2300 C.3   205  VAL205      0.0023
    119  CG2       38.5030   -1.6450   21.2290 C.3   205  VAL205      0.0023
    120  N         40.9220    2.3010   20.7260 N.am  206  TYR206     -0.1974
    121  CA        41.5080    3.5860   21.0790 C.3   206  TYR206      0.1639
    122  C         40.5810    4.7700   20.9050 C.2   206  TYR206      0.2290
    123  O         39.6890    4.7600   20.0600 O.2   206  TYR206     -0.2864
    124  CB        42.7710    3.8150   20.2370 C.3   206  TYR206      0.0560
    125  CG        43.7720    2.6880   20.3400 C.ar  206  TYR206     -0.0198
    126  CD1       43.5950    1.4960   19.6310 C.ar  206  TYR206     -0.0009
    127  CD2       44.8600    2.7850   21.2030 C.ar  206  TYR206     -0.0009
    128  CE1       44.4780    0.4270   19.7880 C.ar  206  TYR206      0.0417
    129  CE2       45.7460    1.7270   21.3670 C.ar  206  TYR206      0.0417
    130  CZ        45.5500    0.5520   20.6610 C.ar  206  TYR206      0.1957
    131  OH        46.4220   -0.4930   20.8560 O.3   206  TYR206     -0.2866
@<TRIPOS>BOND
     1   107   106    1
     2   107   108    1
     3   106   103    1
     4   108   102    1
     5   103   102    1
     6   103   104    1
     7    93    94    1
     8   102    95   am
     9   112   111    2
    10   126   128   ar
    11   126   125   ar
    12   128   130   ar
    13    94    95    1
    14    94    97    1
    15   104   109   am
    16   104   105    2
    17    95    96    2
    18   109   110    1
    19   123   122    2
    20   124   125    1
    21   124   121    1
    22   125   127   ar
    23   111   110    1
    24   111   113   am
    25   130   131    1
    26   130   129   ar
    27   120   121    1
    28   120   115   am
    29    11    12    1
    30   122   121    1
    31   114   113    1
    32   114   115    1
    33   114   117    1
    34    97    98    1
    35    99    98    1
    36    99   100    1
    37   127   129   ar
    38   119   117    1
    39   118   117    1
    40   101   100    1
    41    12    15    1
    42    12    13    1
    43   115   116    2
    44    17    16   ar
    45    15    16    1
    46    16    18   ar
    47    13    19   am
    48    13    14    2
    49    19    20    1
    50    70    72   ar
    51    70    68   ar
    52    72    71   ar
    53    24    23    1
    54    23    20    1
    55    20    21    1
    56    62    61    2
    57    68    67   ar
    58    68    66   ar
    59    46    47    1
    60    71    69   ar
    61    67    65   ar
    62    52    50    1
    63    47    50    1
    64    47    48    1
    65    89    90    2
    66    89    88    1
    67    74    75    1
    68    74    73    1
    69    81    82    1
    70    81    78    1
    71    22    21    2
    72    80    79    2
    73    77    75   am
    74    77    78    1
    75    66    69   ar
    76    66    64   ar
    77    21    25   am
    78    53    48   am
    79    53    54    1
    80    57    54    1
    81    57    58    1
    82    61    73   am
    83    61    60    1
    84    65    64   ar
    85    50    51    1
    86    48    49    2
    87    75    76    2
    88    88    87    1
    89    88    91    1
    90    78    79    1
    91    59    60    1
    92    59    55   am
    93    64    63    1
    94    79    83   am
    95    54    55    1
    96    60    63    1
    97    25    26    1
    98    87    85   am
    99    86    85    2
   100    55    56    2
   101    91    92    1
   102    85    84    1
   103    83    84    1
   104    26    29    1
   105    26    27    1
   106    29    30    1
   107    92    30    1
   108    28    27    2
   109    27    31   am
   110    40    41    1
   111    41    42    1
   112    41    44    1
   113    42    43    2
   114    31    32    1
   115     9     7   ar
   116     9    10   ar
   117    44    45    1
   118     7     6   ar
   119    32    33    1
   120    32    35    1
   121    10     8   ar
   122    33    34    2
   123     6     8   ar
   124     6     5    1
   125     1     2    1
   126    35    36    1
   127     5     2    1
   128    38    37    2
   129     2     3    1
   130    37    36    1
   131    37    39   am
   132     3     4    2
