@<TRIPOS>MOLECULE
tmp/1g3cA01.pdb
 75 73 0 0 0
SMALL
GASTEIGER

@<TRIPOS>ATOM
      1  N         31.8910    5.9380   32.0560 N.3    78  SER78      -0.1202
      2  CA        32.7460    4.8600   32.5480 C.3    78  SER78       0.2020
      3  C         32.2560    3.4520   32.2210 C.2    78  SER78       0.2619
      4  O         33.0170    2.4890   32.3190 O.2    78  SER78      -0.2717
      5  CB        32.9470    4.9920   34.0620 C.3    78  SER78       0.2103
      6  OG        31.7140    4.9210   34.7540 O.3    78  SER78      -0.2182
      7  N         30.9930    3.3260   31.8290 N.am   79  ASN79      -0.1960
      8  CA        30.4410    2.0170   31.5000 C.3    79  ASN79       0.1819
      9  C         30.6960    1.6280   30.0450 C.2    79  ASN79       0.2622
     10  O         30.8950    0.4530   29.7350 O.2    79  ASN79      -0.2715
     11  CB        28.9380    1.9940   31.7870 C.3    79  ASN79       0.1195
     12  CG        28.6210    2.2140   33.2570 C.2    79  ASN79       0.2630
     13  OD1       28.9350    3.2610   33.8230 O.2    79  ASN79      -0.2716
     14  ND2       27.9980    1.2230   33.8820 N.am   79  ASN79      -0.0877
     15  N         30.7000    2.6160   29.1580 N.am   80  THR80      -0.1937
     16  CA        30.9200    2.3710   27.7350 C.3    80  THR80       0.2028
     17  C         32.3050    2.8320   27.2860 C.2    80  THR80       0.2642
     18  O         32.7930    2.4270   26.2290 O.2    80  THR80      -0.2714
     19  CB        29.8820    3.1230   26.8850 C.3    80  THR80       0.1808
     20  OG1       30.0400    4.5340   27.0860 O.3    80  THR80      -0.2208
     21  CG2       28.4670    2.7180   27.2840 C.3    80  THR80       0.0379
     22  N         32.9210    3.6840   28.0990 N.am   81  LEU81      -0.1977
     23  CA        34.2340    4.2480   27.8140 C.3    81  LEU81       0.1596
     24  C         34.1750    5.2340   26.6490 C.2    81  LEU81       0.2287
     25  O         35.1910    5.5690   26.0450 O.2    81  LEU81      -0.2864
     26  CB        35.2540    3.1360   27.5400 C.3    81  LEU81       0.0297
     27  CG        35.6170    2.3290   28.7910 C.3    81  LEU81       0.0022
     28  CD1       36.5250    1.1730   28.4240 C.3    81  LEU81       0.0001
     29  CD2       36.2990    3.2400   29.8060 C.3    81  LEU81       0.0001
     30  N         29.5870   -2.1440   20.7100 N.3   155  GLN155     -0.1245
     31  CA        30.4080   -1.4930   21.7300 C.3   155  GLN155      0.1566
     32  C         31.3090   -0.3970   21.1750 C.2   155  GLN155      0.2260
     33  O         31.9550    0.3260   21.9340 O.2   155  GLN155     -0.2867
     34  CB        31.2780   -2.5240   22.4450 C.3   155  GLN155      0.0367
     35  CG        30.5160   -3.5320   23.2750 C.3   155  GLN155      0.0905
     36  CD        31.4440   -4.4880   23.9910 C.2   155  GLN155      0.2608
     37  OE1       32.1180   -5.3030   23.3620 O.2   155  GLN155     -0.2717
     38  NE2       31.4950   -4.3850   25.3140 N.am  155  GLN155     -0.0878
     39  N         47.1830   -3.5210   29.9240 N.3   174  GLN174     -0.1245
     40  CA        47.0030   -2.7600   31.1570 C.3   174  GLN174      0.1566
     41  C         48.3050   -2.0470   31.4970 C.2   174  GLN174      0.2260
     42  O         49.3830   -2.6290   31.3940 O.2   174  GLN174     -0.2867
     43  CB        46.6100   -3.6780   32.3140 C.3   174  GLN174      0.0367
     44  CG        45.1900   -4.2150   32.2280 C.3   174  GLN174      0.0905
     45  CD        44.9860   -5.1660   31.0670 C.2   174  GLN174      0.2608
     46  OE1       45.6580   -6.1930   30.9670 O.2   174  GLN174     -0.2717
     47  NE2       44.0520   -4.8310   30.1830 N.am  174  GLN174     -0.0878
     48  N         40.7620    0.7370   25.6850 N.3   193  TRP193     -0.1227
     49  CA        40.3600   -0.5740   26.1900 C.3   193  TRP193      0.1737
     50  C         40.5190   -1.7210   25.2050 C.2   193  TRP193      0.2596
     51  O         41.0880   -1.5640   24.1320 O.2   193  TRP193     -0.2718
     52  CB        38.9080   -0.5380   26.6860 C.3   193  TRP193      0.0564
     53  CG        37.8860   -0.1870   25.6290 C.ar  193  TRP193      0.0003
     54  CD1       37.5960    1.0570   25.1470 C.ar  193  TRP193      0.0946
     55  CD2       37.0140   -1.0970   24.9400 C.ar  193  TRP193      0.0152
     56  NE1       36.5950    0.9800   24.2040 N.ar  193  TRP193     -0.2442
     57  CE2       36.2210   -0.3310   24.0580 C.ar  193  TRP193      0.0810
     58  CE3       36.8280   -2.4860   24.9840 C.ar  193  TRP193      0.0012
     59  CZ2       35.2520   -0.9070   23.2240 C.ar  193  TRP193      0.0191
     60  CZ3       35.8630   -3.0610   24.1530 C.ar  193  TRP193      0.0001
     61  CH2       35.0900   -2.2680   23.2860 C.ar  193  TRP193      0.0015
     62  N         40.0140   -2.8850   25.6010 N.am  194  GLY194     -0.1942
     63  CA        40.0880   -4.0680   24.7650 C.3   194  GLY194      0.2014
     64  C         39.6200   -5.2660   25.5680 C.2   194  GLY194      0.2640
     65  O         39.1280   -5.1100   26.6860 O.2   194  GLY194     -0.2714
     66  N         39.7580   -6.4590   25.0020 N.am  195  SER195     -0.1935
     67  CA        39.3570   -7.6790   25.6920 C.3   195  SER195      0.2055
     68  C         40.6330   -8.4590   25.9680 C.2   195  SER195      0.2643
     69  O         41.2050   -9.0690   25.0620 O.2   195  SER195     -0.2714
     70  CB        38.4130   -8.5000   24.8140 C.3   195  SER195      0.2130
     71  OG        37.9310   -9.6290   25.5190 O.3   195  SER195     -0.2179
     72  N         41.0780   -8.4370   27.2200 N.am  196  GLY196     -0.1954
     73  CA        42.3140   -9.1140   27.5620 C.3   196  GLY196      0.1869
     74  C         43.4220   -8.3710   26.8370 C.2   196  GLY196      0.2309
     75  O         43.3030   -7.1670   26.6050 O.2   196  GLY196     -0.2863
@<TRIPOS>BOND
     1    30    31    1
     2    32    31    1
     3    32    33    2
     4    31    34    1
     5    34    35    1
     6    59    61   ar
     7    59    57   ar
     8    35    36    1
     9    61    60   ar
    10    37    36    2
    11    36    38   am
    12    57    56   ar
    13    57    55   ar
    14    51    50    2
    15    60    58   ar
    16    56    54   ar
    17    63    64    1
    18    63    62    1
    19    70    71    1
    20    70    67    1
    21    55    58   ar
    22    55    53   ar
    23    66    64   am
    24    66    67    1
    25    69    68    2
    26    54    53   ar
    27    50    62   am
    28    50    49    1
    29    64    65    2
    30    53    52    1
    31    48    49    1
    32    67    68    1
    33    68    72   am
    34    25    24    2
    35    49    52    1
    36    18    17    2
    37    75    74    2
    38    24    23    1
    39    74    73    1
    40    19    20    1
    41    19    21    1
    42    19    16    1
    43    72    73    1
    44    17    16    1
    45    17    22   am
    46    26    23    1
    47    26    27    1
    48    16    15    1
    49    23    22    1
    50    28    27    1
    51    27    29    1
    52    15     9   am
    53    10     9    2
    54    39    40    1
    55     9     8    1
    56    47    45   am
    57    46    45    2
    58    45    44    1
    59    40    41    1
    60    40    43    1
    61    42    41    2
    62     8    11    1
    63     8     7    1
    64    11    12    1
    65     7     3   am
    66     1     2    1
    67     3     4    2
    68     3     2    1
    69    44    43    1
    70     2     5    1
    71    12    13    2
    72    12    14   am
    73     5     6    1
