@<TRIPOS>MOLECULE
tmp/1g3eA00.pdb
 132 130 0 0 0
SMALL
GASTEIGER

@<TRIPOS>ATOM
      1  N         39.7610    7.2760   32.1360 N.3    40  HIS40      -0.1241
      2  CA        39.7560    6.2320   33.1550 C.3    40  HIS40       0.1621
      3  C         41.0350    6.2100   33.9940 C.2    40  HIS40       0.2264
      4  O         41.1590    5.4290   34.9370 O.2    40  HIS40      -0.2867
      5  CB        39.4620    4.8410   32.5470 C.3    40  HIS40       0.0745
      6  CG        40.5870    4.2450   31.7530 C.ar   40  HIS40       0.0817
      7  ND1       40.6950    4.3900   30.3850 N.ar   40  HIS40      -0.2268
      8  CD2       41.6160    3.4460   32.1260 C.ar   40  HIS40       0.1154
      9  CE1       41.7360    3.7030   29.9510 C.ar   40  HIS40       0.1986
     10  NE2       42.3120    3.1200   30.9870 N.ar   40  HIS40      -0.2212
     11  N         32.9690    3.6530   28.1860 N.3    81  LEU81      -0.1245
     12  CA        34.2700    4.2430   27.8920 C.3    81  LEU81       0.1561
     13  C         34.1940    5.2060   26.7050 C.2    81  LEU81       0.2260
     14  O         35.2000    5.5130   26.0660 O.2    81  LEU81      -0.2867
     15  CB        35.3230    3.1550   27.6420 C.3    81  LEU81       0.0270
     16  CG        35.7180    2.3580   28.8890 C.3    81  LEU81       0.0019
     17  CD1       36.7960    1.3540   28.5350 C.3    81  LEU81       0.0001
     18  CD2       36.2240    3.3020   29.9720 C.3    81  LEU81       0.0001
     19  N         49.8460   -6.2420   21.0190 N.3   171  ASP171     -0.1225
     20  CA        48.7650   -5.3620   21.4550 C.3   171  ASP171      0.1805
     21  C         49.2300   -4.4960   22.6280 C.2   171  ASP171      0.2598
     22  O         50.3080   -4.7230   23.1850 O.2   171  ASP171     -0.2718
     23  CB        47.5870   -6.2550   21.8770 C.3   171  ASP171      0.1424
     24  CG        46.3260   -5.4830   22.2140 C.2   171  ASP171      0.3668
     25  OD1       46.2060   -4.3040   21.8320 O.co2 171  ASP171     -0.2456
     26  OD2       45.4340   -6.0830   22.8560 O.co2 171  ASP171     -0.2456
     27  N         48.4440   -3.4800   22.9780 N.am  172  SER172     -0.1938
     28  CA        48.7760   -2.6610   24.1350 C.3   172  SER172      0.2055
     29  C         48.1090   -3.4400   25.2690 C.2   172  SER172      0.2643
     30  O         47.3640   -4.3910   25.0070 O.2   172  SER172     -0.2714
     31  CB        48.1990   -1.2410   24.0050 C.3   172  SER172      0.2130
     32  OG        46.8030   -1.2590   23.7710 O.3   172  SER172     -0.2179
     33  N         48.3570   -3.0680   26.5180 N.am  173  CYS173     -0.1953
     34  CA        47.7700   -3.8200   27.6210 C.3   173  CYS173      0.1843
     35  C         47.6120   -2.9620   28.8760 C.2   173  CYS173      0.2625
     36  O         47.8380   -1.7520   28.8410 O.2   173  CYS173     -0.2714
     37  CB        48.6610   -5.0380   27.9020 C.3   173  CYS173      0.0997
     38  SG        47.9410   -6.3810   28.9040 S.3   173  CYS173     -0.0797
     39  N         47.2100   -3.5890   29.9770 N.am  174  GLN174     -0.1977
     40  CA        47.0340   -2.8740   31.2400 C.3   174  GLN174      0.1601
     41  C         48.3210   -2.1240   31.5500 C.2   174  GLN174      0.2287
     42  O         49.4100   -2.6840   31.4320 O.2   174  GLN174     -0.2864
     43  CB        46.7510   -3.8540   32.3760 C.3   174  GLN174      0.0394
     44  CG        45.5720   -4.7740   32.1330 C.3   174  GLN174      0.0908
     45  CD        45.4260   -5.8170   33.2310 C.2   174  GLN174      0.2608
     46  OE1       45.2330   -5.4780   34.4030 O.2   174  GLN174     -0.2717
     47  NE2       45.5280   -7.0940   32.8580 N.am  174  GLN174     -0.0878
     48  N         47.3800    2.2180   29.3470 N.3   177  SER177     -0.1217
     49  CA        46.2340    3.1320   29.3430 C.3   177  SER177      0.1889
     50  C         46.6350    4.6000   29.3280 C.2   177  SER177      0.2288
     51  O         47.5180    5.0140   30.0800 O.2   177  SER177     -0.2866
     52  CB        45.3650    2.9060   30.5870 C.3   177  SER177      0.2089
     53  OG        44.6820    1.6710   30.5430 O.3   177  SER177     -0.2183
     54  N         45.3850    5.0590   24.2990 N.3   191  VAL191     -0.1231
     55  CA        45.1190    3.6770   24.7050 C.3   191  VAL191      0.1692
     56  C         43.9170    3.6800   25.6500 C.2   191  VAL191      0.2593
     57  O         43.9660    4.2800   26.7280 O.2   191  VAL191     -0.2718
     58  CB        46.3350    3.0660   25.4190 C.3   191  VAL191      0.0266
     59  CG1       46.0180    1.6480   25.8620 C.3   191  VAL191      0.0020
     60  CG2       47.5360    3.0770   24.4810 C.3   191  VAL191      0.0020
     61  N         42.8430    3.0040   25.2470 N.am  192  SER192     -0.1938
     62  CA        41.6220    2.9910   26.0410 C.3   192  SER192      0.2055
     63  C         41.2240    1.6230   26.5860 C.2   192  SER192      0.2643
     64  O         41.3120    1.3860   27.7940 O.2   192  SER192     -0.2714
     65  CB        40.4790    3.5920   25.2120 C.3   192  SER192      0.2130
     66  OG        39.2940    3.7470   25.9770 O.3   192  SER192     -0.2179
     67  N         40.7800    0.7160   25.7220 N.am  193  TRP193     -0.1959
     68  CA        40.3870   -0.6010   26.2100 C.3   193  TRP193      0.1771
     69  C         40.5650   -1.7410   25.2210 C.2   193  TRP193      0.2620
     70  O         41.1540   -1.5790   24.1580 O.2   193  TRP193     -0.2715
     71  CB        38.9330   -0.5870   26.7010 C.3   193  TRP193      0.0590
     72  CG        37.9100   -0.2260   25.6560 C.ar  193  TRP193      0.0006
     73  CD1       37.6160    1.0240   25.1910 C.ar  193  TRP193      0.0946
     74  CD2       37.0350   -1.1270   24.9640 C.ar  193  TRP193      0.0152
     75  NE1       36.6090    0.9590   24.2550 N.ar  193  TRP193     -0.2442
     76  CE2       36.2350   -0.3500   24.0950 C.ar  193  TRP193      0.0810
     77  CE3       36.8500   -2.5160   24.9930 C.ar  193  TRP193      0.0012
     78  CZ2       35.2620   -0.9180   23.2610 C.ar  193  TRP193      0.0191
     79  CZ3       35.8800   -3.0820   24.1610 C.ar  193  TRP193      0.0001
     80  CH2       35.1010   -2.2810   23.3090 C.ar  193  TRP193      0.0015
     81  N         40.0510   -2.9030   25.6050 N.am  194  GLY194     -0.1940
     82  CA        40.1350   -4.0850   24.7690 C.3   194  GLY194      0.2014
     83  C         39.6780   -5.2700   25.5950 C.2   194  GLY194      0.2640
     84  O         39.2430   -5.0930   26.7320 O.2   194  GLY194     -0.2714
     85  N         39.7670   -6.4720   25.0360 N.am  195  SER195     -0.1935
     86  CA        39.3690   -7.6770   25.7570 C.3   195  SER195      0.2055
     87  C         40.6340   -8.4850   25.9990 C.2   195  SER195      0.2644
     88  O         41.1820   -9.0870   25.0740 O.2   195  SER195     -0.2714
     89  CB        38.3730   -8.4920   24.9320 C.3   195  SER195      0.2130
     90  OG        37.8650   -9.5710   25.6950 O.3   195  SER195     -0.2179
     91  N         41.0980   -8.4960   27.2440 N.am  196  GLY196     -0.1939
     92  CA        42.3260   -9.2010   27.5520 C.3   196  GLY196      0.2014
     93  C         43.4300   -8.4490   26.8290 C.2   196  GLY196      0.2639
     94  O         43.2960   -7.2510   26.5880 O.2   196  GLY196     -0.2714
     95  N         44.5090   -9.1370   26.4750 N.am  197  CYS197     -0.1967
     96  CA        45.6110   -8.5040   25.7580 C.3   197  CYS197      0.1712
     97  C         46.2110   -9.4560   24.7370 C.2   197  CYS197      0.2296
     98  O         46.5300  -10.6020   25.0550 O.2   197  CYS197     -0.2864
     99  CB        46.7110   -8.0720   26.7260 C.3   197  CYS197      0.0983
    100  SG        46.2070   -6.8270   27.9510 S.3   197  CYS197     -0.0798
    101  N         40.5840   -9.9590   18.8730 N.3   202  LYS202     -0.1245
    102  CA        40.2380   -8.9550   19.8760 C.3   202  LYS202      0.1561
    103  C         41.2920   -7.8520   19.9020 C.2   202  LYS202      0.2260
    104  O         42.0960   -7.7680   20.8290 O.2   202  LYS202     -0.2867
    105  CB        40.1320   -9.5990   21.2610 C.3   202  LYS202      0.0271
    106  CG        39.0130  -10.6250   21.3820 C.3   202  LYS202      0.0035
    107  CD        37.6570   -9.9770   21.1530 C.3   202  LYS202      0.0206
    108  CE        36.5350  -11.0010   21.2010 C.3   202  LYS202      0.1093
    109  NZ        35.2100  -10.3730   20.9300 N.3   202  LYS202     -0.1314
    110  N         43.0370   -3.9600   20.0350 N.3   204  GLY204     -0.1210
    111  CA        42.9210   -2.9050   21.0210 C.3   204  GLY204      0.1956
    112  C         41.9800   -1.8230   20.5270 C.2   204  GLY204      0.2612
    113  O         41.8450   -1.6120   19.3200 O.2   204  GLY204     -0.2717
    114  N         41.3170   -1.1420   21.4550 N.am  205  VAL205     -0.1965
    115  CA        40.3990   -0.0700   21.0980 C.3   205  VAL205      0.1727
    116  C         40.9990    1.2320   21.6080 C.2   205  VAL205      0.2616
    117  O         41.5000    1.2940   22.7340 O.2   205  VAL205     -0.2715
    118  CB        39.0100   -0.2870   21.7190 C.3   205  VAL205      0.0290
    119  CG1       38.0570    0.8020   21.2440 C.3   205  VAL205      0.0023
    120  CG2       38.4770   -1.6600   21.3270 C.3   205  VAL205      0.0023
    121  N         40.9340    2.2690   20.7800 N.am  206  TYR206     -0.1974
    122  CA        41.5330    3.5550   21.1120 C.3   206  TYR206      0.1639
    123  C         40.6060    4.7480   20.9480 C.2   206  TYR206      0.2290
    124  O         39.7260    4.7550   20.0920 O.2   206  TYR206     -0.2864
    125  CB        42.7690    3.7560   20.2320 C.3   206  TYR206      0.0560
    126  CG        43.7730    2.6390   20.3740 C.ar  206  TYR206     -0.0198
    127  CD1       44.8100    2.7300   21.2980 C.ar  206  TYR206     -0.0009
    128  CD2       43.6470    1.4590   19.6350 C.ar  206  TYR206     -0.0009
    129  CE1       45.6960    1.6780   21.4880 C.ar  206  TYR206      0.0417
    130  CE2       44.5300    0.3960   19.8190 C.ar  206  TYR206      0.0417
    131  CZ        45.5500    0.5140   20.7490 C.ar  206  TYR206      0.1957
    132  OH        46.4160   -0.5290   20.9640 O.3   206  TYR206     -0.2866
@<TRIPOS>BOND
     1   101   102    1
     2   113   112    2
     3   128   130   ar
     4   128   126   ar
     5   130   131   ar
     6   102   103    1
     7   102   105    1
     8   103   104    2
     9   110   111    1
    10   124   123    2
    11   125   126    1
    12   125   122    1
    13   126   127   ar
    14   112   111    1
    15   112   114   am
    16   131   132    1
    17   131   129   ar
    18   121   122    1
    19   121   116   am
    20   109   108    1
    21   123   122    1
    22    19    20    1
    23   115   114    1
    24   115   116    1
    25   115   118    1
    26   107   108    1
    27   107   106    1
    28   119   118    1
    29   105   106    1
    30   127   129   ar
    31   120   118    1
    32    20    23    1
    33    20    21    1
    34   116   117    2
    35    25    24   ar
    36    23    24    1
    37    24    26   ar
    38    21    27   am
    39    21    22    2
    40    27    28    1
    41    78    80   ar
    42    78    76   ar
    43    80    79   ar
    44    32    31    1
    45    31    28    1
    46    76    75   ar
    47    76    74   ar
    48    28    29    1
    49    70    69    2
    50    79    77   ar
    51    75    73   ar
    52    54    55    1
    53    60    58    1
    54    55    58    1
    55    55    56    1
    56    97    98    2
    57    97    96    1
    58    82    83    1
    59    82    81    1
    60    89    90    1
    61    89    86    1
    62    74    77   ar
    63    74    72   ar
    64    30    29    2
    65    85    83   am
    66    85    86    1
    67    88    87    2
    68    73    72   ar
    69    65    66    1
    70    65    62    1
    71    69    81   am
    72    69    68    1
    73    61    56   am
    74    61    62    1
    75    29    33   am
    76    58    59    1
    77    83    84    2
    78    56    57    2
    79    72    71    1
    80    67    68    1
    81    67    63   am
    82    86    87    1
    83    96    95    1
    84    96    99    1
    85    87    91   am
    86    62    63    1
    87    14    13    2
    88    68    71    1
    89    95    93   am
    90    33    34    1
    91    63    64    2
    92    94    93    2
    93    13    12    1
    94    99   100    1
    95    93    92    1
    96    91    92    1
    97    34    37    1
    98    34    35    1
    99    15    12    1
   100    15    16    1
   101    12    11    1
   102    37    38    1
   103   100    38    1
   104    17    16    1
   105    36    35    2
   106    35    39   am
   107    16    18    1
   108    50    49    1
   109    50    51    2
   110    49    48    1
   111    49    52    1
   112     9     7   ar
   113     9    10   ar
   114    39    40    1
   115     7     6   ar
   116    53    52    1
   117    10     8   ar
   118    40    41    1
   119    40    43    1
   120    42    41    2
   121     6     8   ar
   122     6     5    1
   123    44    43    1
   124    44    45    1
   125     1     2    1
   126     5     2    1
   127    47    45   am
   128     2     3    1
   129    45    46    2
   130     3     4    2
