@<TRIPOS>MOLECULE
tmp/1g3fA00.pdb
 119 119 0 0 0
SMALL
GASTEIGER

@<TRIPOS>ATOM
      1  N          2.9260  -12.7420    0.1550 N.3    58  LYS58      -0.1231
      2  CA         3.3300  -11.9770    1.3340 C.3    58  LYS58       0.1693
      3  C          4.1500  -10.7500    0.9470 C.2    58  LYS58       0.2592
      4  O          5.2410  -10.8640    0.3770 O.2    58  LYS58      -0.2718
      5  CB         4.1210  -12.8490    2.3080 C.3    58  LYS58       0.0285
      6  CG         3.9610  -12.4230    3.7610 C.3    58  LYS58       0.0035
      7  CD         5.1190  -12.9080    4.6180 C.3    58  LYS58       0.0206
      8  CE         4.6420  -13.8360    5.7240 C.3    58  LYS58       0.1093
      9  NZ         5.7520  -14.2380    6.6310 N.3    58  LYS58      -0.1314
     10  N          3.6120   -9.5760    1.2630 N.am   59  VAL59      -0.1966
     11  CA         4.2800   -8.3200    0.9520 C.3    59  VAL59       0.1727
     12  C          4.0130   -7.2690    2.0260 C.2    59  VAL59       0.2616
     13  O          2.8910   -7.1360    2.5150 O.2    59  VAL59      -0.2715
     14  CB         3.8250   -7.7830   -0.4190 C.3    59  VAL59       0.0290
     15  CG1        2.3130   -7.8850   -0.5540 C.3    59  VAL59       0.0023
     16  CG2        4.2860   -6.3480   -0.6240 C.3    59  VAL59       0.0023
     17  N          5.0540   -6.5210    2.3850 N.am   60  LYS60      -0.1977
     18  CA         4.9380   -5.4770    3.3970 C.3    60  LYS60       0.1596
     19  C          4.9960   -4.0920    2.7650 C.2    60  LYS60       0.2287
     20  O          5.8010   -3.8410    1.8680 O.2    60  LYS60      -0.2864
     21  CB         6.0540   -5.6100    4.4350 C.3    60  LYS60       0.0298
     22  CG         5.6880   -6.4830    5.6230 C.3    60  LYS60       0.0038
     23  CD         5.1670   -5.6530    6.7840 C.3    60  LYS60       0.0206
     24  CE         5.6230   -6.2170    8.1200 C.3    60  LYS60       0.1093
     25  NZ         5.8200   -7.6920    8.0660 N.3    60  LYS60      -0.1314
     26  N          1.7920   -6.1230    6.7670 N.3    67  GLY67      -0.1210
     27  CA         2.0410   -7.4200    6.1700 C.3    67  GLY67       0.1956
     28  C          0.7560   -8.0940    5.7470 C.2    67  GLY67       0.2612
     29  O         -0.0540   -8.4850    6.5880 O.2    67  GLY67      -0.2717
     30  N          0.5600   -8.2170    4.4400 N.am   68  LEU68      -0.1965
     31  CA        -0.6470   -8.8330    3.9110 C.3    68  LEU68       0.1728
     32  C         -0.3230  -10.0510    3.0590 C.2    68  LEU68       0.2617
     33  O          0.4890   -9.9850    2.1340 O.2    68  LEU68      -0.2715
     34  CB        -1.4430   -7.8180    3.0890 C.3    68  LEU68       0.0311
     35  CG        -2.2890   -6.8470    3.9130 C.3    68  LEU68       0.0022
     36  CD1       -3.4880   -7.5640    4.5120 C.3    68  LEU68       0.0001
     37  CD2       -1.4470   -6.2070    5.0050 C.3    68  LEU68       0.0001
     38  N         -0.9740  -11.1600    3.3800 N.am   69  THR69      -0.1937
     39  CA        -0.7820  -12.4050    2.6560 C.3    69  THR69       0.2028
     40  C         -2.1300  -13.0640    2.3890 C.2    69  THR69       0.2642
     41  O         -3.0340  -12.9950    3.2180 O.2    69  THR69      -0.2714
     42  CB         0.1220  -13.3730    3.4410 C.3    69  THR69       0.1808
     43  OG1        0.8590  -14.2040    2.5360 O.3    69  THR69      -0.2208
     44  CG2       -0.6960  -14.2440    4.3820 C.3    69  THR69       0.0379
     45  N         -2.2710  -13.6880    1.2280 N.am   70  ASP70      -0.1957
     46  CA        -3.5260  -14.3370    0.8720 C.3    70  ASP70       0.1840
     47  C         -4.6060  -13.2950    0.5960 C.2    70  ASP70       0.2622
     48  O         -5.6590  -13.2950    1.2320 O.2    70  ASP70      -0.2715
     49  CB        -3.9800  -15.2700    1.9940 C.3    70  ASP70       0.1450
     50  CG        -4.7750  -16.4530    1.4770 C.2    70  ASP70       0.3671
     51  OD1       -4.8110  -16.6510    0.2450 O.co2  70  ASP70      -0.2456
     52  OD2       -5.3610  -17.1820    2.3050 O.co2  70  ASP70      -0.2456
     53  N         -4.3320  -12.4070   -0.3550 N.am   71  TRP71      -0.1960
     54  CA        -5.2740  -11.3530   -0.7180 C.3    71  TRP71       0.1771
     55  C         -6.6490  -11.9380   -1.0350 C.2    71  TRP71       0.2619
     56  O         -6.8580  -13.1480   -0.9470 O.2    71  TRP71      -0.2715
     57  CB        -4.7670  -10.5670   -1.9330 C.3    71  TRP71       0.0590
     58  CG        -3.4550   -9.8610   -1.7260 C.ar   71  TRP71       0.0006
     59  CD1       -2.2170  -10.4340   -1.6130 C.ar   71  TRP71       0.0946
     60  CD2       -3.2480   -8.4430   -1.6350 C.ar   71  TRP71       0.0152
     61  NE1       -1.2570   -9.4610   -1.4650 N.ar   71  TRP71      -0.2442
     62  CE2       -1.8620   -8.2360   -1.4740 C.ar   71  TRP71       0.0810
     63  CE3       -4.0940   -7.3270   -1.6750 C.ar   71  TRP71       0.0012
     64  CZ2       -1.3070   -6.9650   -1.3590 C.ar   71  TRP71       0.0191
     65  CZ3       -3.5350   -6.0690   -1.5580 C.ar   71  TRP71       0.0001
     66  CH2       -2.1570   -5.8990   -1.4040 C.ar   71  TRP71       0.0015
     67  N         -7.5820  -11.0700   -1.4160 N.am   72  LYS72      -0.1977
     68  CA        -8.9340  -11.5010   -1.7580 C.3    72  LYS72       0.1596
     69  C         -9.1300  -11.4860   -3.2730 C.2    72  LYS72       0.2287
     70  O         -8.5690  -10.6400   -3.9690 O.2    72  LYS72      -0.2864
     71  CB        -9.9680  -10.5950   -1.0850 C.3    72  LYS72       0.0298
     72  CG       -11.2750  -11.2990   -0.7590 C.3    72  LYS72       0.0038
     73  CD       -11.9600  -10.6790    0.4490 C.3    72  LYS72       0.0206
     74  CE       -12.9730  -11.6320    1.0640 C.3    72  LYS72       0.1093
     75  NZ       -14.1960  -10.9210    1.5300 N.3    72  LYS72      -0.1314
     76  N        -10.1790   -7.4000   -4.8020 N.3    75  GLU75      -0.1245
     77  CA        -9.6190   -6.3400   -3.9740 C.3    75  GLU75       0.1567
     78  C         -8.5000   -5.6290   -4.7150 C.2    75  GLU75       0.2260
     79  O         -8.2490   -5.9030   -5.8880 O.2    75  GLU75      -0.2867
     80  CB        -9.0860   -6.9200   -2.6620 C.3    75  GLU75       0.0388
     81  CG       -10.1160   -6.9500   -1.5460 C.3    75  GLU75       0.1160
     82  CD        -9.4830   -6.9390   -0.1680 C.2    75  GLU75       0.3649
     83  OE1       -9.0900   -5.8490    0.2960 O.co2  75  GLU75      -0.2457
     84  OE2       -9.3830   -8.0210    0.4480 O.co2  75  GLU75      -0.2457
     85  N         -6.6200   -2.8100    0.3210 N.3    80  GLN80      -0.1245
     86  CA        -6.1560   -3.7380    1.3510 C.3    80  GLN80       0.1566
     87  C         -5.3990   -3.0450    2.4930 C.2    80  GLN80       0.2260
     88  O         -5.9050   -2.9670    3.6120 O.2    80  GLN80      -0.2867
     89  CB        -5.2840   -4.8350    0.7260 C.3    80  GLN80       0.0367
     90  CG        -5.2850   -6.1330    1.5170 C.3    80  GLN80       0.0905
     91  CD        -6.5870   -6.9000    1.3760 C.2    80  GLN80       0.2608
     92  OE1       -6.8110   -7.5860    0.3790 O.2    80  GLN80      -0.2717
     93  NE2       -7.4530   -6.7870    2.3770 N.am   80  GLN80      -0.0878
     94  N         -7.2870   -1.7810    6.0380 N.3    84  TRP84      -0.1227
     95  CA        -6.7070   -2.4850    7.1780 C.3    84  TRP84       0.1737
     96  C         -6.1390   -1.5010    8.1940 C.2    84  TRP84       0.2595
     97  O         -6.3670   -1.6320    9.3960 O.2    84  TRP84      -0.2718
     98  CB        -5.6030   -3.4340    6.7090 C.3    84  TRP84       0.0564
     99  CG        -6.0570   -4.8540    6.5610 C.ar   84  TRP84       0.0003
    100  CD1       -6.3360   -5.5040    5.3960 C.ar   84  TRP84       0.0946
    101  CD2       -6.2810   -5.7990    7.6140 C.ar   84  TRP84       0.0152
    102  NE1       -6.7230   -6.7960    5.6570 N.ar   84  TRP84      -0.2442
    103  CE2       -6.6970   -7.0020    7.0110 C.ar   84  TRP84       0.0810
    104  CE3       -6.1700   -5.7470    9.0060 C.ar   84  TRP84       0.0012
    105  CZ2       -7.0020   -8.1400    7.7540 C.ar   84  TRP84       0.0191
    106  CZ3       -6.4730   -6.8770    9.7410 C.ar   84  TRP84       0.0001
    107  CH2       -6.8840   -8.0600    9.1140 C.ar   84  TRP84       0.0015
    108  N         -5.3940   -0.5180    7.7000 N.am   85  TYR85      -0.1976
    109  CA        -4.7870    0.4890    8.5610 C.3    85  TYR85       0.1639
    110  C         -4.7890    1.8530    7.8850 C.2    85  TYR85       0.2290
    111  O         -3.8230    2.2240    7.2190 O.2    85  TYR85      -0.2864
    112  CB        -3.3530    0.0930    8.9150 C.3    85  TYR85       0.0560
    113  CG        -3.2670   -1.0490    9.9030 C.ar   85  TYR85      -0.0198
    114  CD1       -3.2440   -2.3680    9.4690 C.ar   85  TYR85      -0.0009
    115  CD2       -3.2120   -0.8070   11.2700 C.ar   85  TYR85      -0.0009
    116  CE1       -3.1680   -3.4140   10.3680 C.ar   85  TYR85       0.0417
    117  CE2       -3.1340   -1.8470   12.1760 C.ar   85  TYR85       0.0417
    118  CZ        -3.1130   -3.1490   11.7200 C.ar   85  TYR85       0.1957
    119  OH        -3.0370   -4.1880   12.6190 O.3    85  TYR85      -0.2866
@<TRIPOS>BOND
     1    79    78    2
     2    76    77    1
     3    78    77    1
     4    77    80    1
     5    70    69    2
     6    69    68    1
     7    80    81    1
     8    57    58    1
     9    57    54    1
    10    68    67    1
    11    68    71    1
    12    58    60   ar
    13    58    59   ar
    14    63    60   ar
    15    63    65   ar
    16    60    62   ar
    17    59    61   ar
    18    65    66   ar
    19    81    82    1
    20    62    61   ar
    21    62    64   ar
    22    67    55   am
    23    66    64   ar
    24    71    72    1
    25    55    56    2
    26    55    54    1
    27    72    73    1
    28    54    53    1
    29    16    14    1
    30    15    14    1
    31    14    11    1
    32    53    47   am
    33    82    83   ar
    34    82    84   ar
    35     1     2    1
    36    51    50   ar
    37    85    86    1
    38     4     3    2
    39    92    91    2
    40    73    74    1
    41    47    46    1
    42    47    48    2
    43    89    86    1
    44    89    90    1
    45    46    45    1
    46    46    49    1
    47     3    10   am
    48     3     2    1
    49    11    10    1
    50    11    12    1
    51    74    75    1
    52    45    40   am
    53     2     5    1
    54    86    87    1
    55    91    90    1
    56    91    93   am
    57    50    49    1
    58    50    52   ar
    59    20    19    2
    60    12    17   am
    61    12    13    2
    62    33    32    2
    63     5     6    1
    64    17    18    1
    65    40    39    1
    66    40    41    2
    67    87    88    2
    68    43    42    1
    69    39    38    1
    70    39    42    1
    71    19    18    1
    72    32    38   am
    73    32    31    1
    74    34    31    1
    75    34    35    1
    76    18    21    1
    77    42    44    1
    78     6     7    1
    79    31    30    1
    80    35    36    1
    81    35    37    1
    82    21    22    1
    83    30    28   am
    84     7     8    1
    85   100   102   ar
    86   100    99   ar
    87    22    23    1
    88   102   103   ar
    89     8     9    1
    90    28    27    1
    91    28    29    2
    92    94    95    1
    93    27    26    1
    94    99    98    1
    95    99   101   ar
    96    98    95    1
    97    23    24    1
    98   103   101   ar
    99   103   105   ar
   100    95    96    1
   101   111   110    2
   102   101   104   ar
   103   108    96   am
   104   108   109    1
   105   105   107   ar
   106   110   109    1
   107    25    24    1
   108    96    97    2
   109   109   112    1
   110   112   113    1
   111   104   106   ar
   112   107   106   ar
   113   114   113   ar
   114   114   116   ar
   115   113   115   ar
   116   116   118   ar
   117   115   117   ar
   118   118   117   ar
   119   118   119    1
