@<TRIPOS>MOLECULE
tmp/1g3iC00.pdb
 167 159 0 0 0
SMALL
GASTEIGER

@<TRIPOS>ATOM
      1  N        134.0910   33.2160  126.7120 N.3    15  HIS15      -0.1226
      2  CA       133.5560   34.3690  125.9790 C.3    15  HIS15       0.1752
      3  C        134.0210   34.5970  124.5540 C.2    15  HIS15       0.2596
      4  O        133.3810   35.3340  123.8250 O.2    15  HIS15      -0.2718
      5  CB       133.8400   35.6420  126.7230 C.3    15  HIS15       0.0759
      6  CG       133.4080   35.6090  128.1400 C.ar   15  HIS15       0.0818
      7  ND1      134.0040   34.7900  129.0700 N.ar   15  HIS15      -0.2268
      8  CD2      132.4780   36.3320  128.8020 C.ar   15  HIS15       0.1154
      9  CE1      133.4650   35.0160  130.2520 C.ar   15  HIS15       0.1986
     10  NE2      132.5360   35.9490  130.1180 N.ar   15  HIS15      -0.2212
     11  N        135.1490   34.0230  124.1610 N.am   16  ILE16      -0.1966
     12  CA       135.6360   34.2060  122.8030 C.3    16  ILE16       0.1727
     13  C        135.6760   32.8780  122.1090 C.2    16  ILE16       0.2616
     14  O        136.0970   31.8880  122.6830 O.2    16  ILE16      -0.2715
     15  CB       137.0610   34.7520  122.7410 C.3    16  ILE16       0.0290
     16  CG1      137.1950   36.0660  123.5200 C.3    16  ILE16       0.0022
     17  CG2      137.4200   34.9860  121.2910 C.3    16  ILE16       0.0023
     18  CD1      137.2210   35.9450  125.0370 C.3    16  ILE16       0.0001
     19  N        135.2560   32.8590  120.8590 N.am   17  ILE17      -0.1977
     20  CA       135.2580   31.6260  120.0860 C.3    17  ILE17       0.1596
     21  C        136.5060   31.6090  119.2600 C.2    17  ILE17       0.2287
     22  O        136.8330   32.6040  118.6510 O.2    17  ILE17      -0.2864
     23  CB       134.0730   31.5740  119.1240 C.3    17  ILE17       0.0276
     24  CG1      132.7740   31.5460  119.9090 C.3    17  ILE17       0.0022
     25  CG2      134.1880   30.3970  118.2250 C.3    17  ILE17       0.0022
     26  CD1      132.7690   30.5380  120.9860 C.3    17  ILE17       0.0001
     27  N        140.3880   31.7560  117.9470 N.3    19  GLN19      -0.1245
     28  CA       141.5210   32.6110  118.2850 C.3    19  GLN19       0.1566
     29  C        142.2160   31.9600  119.4810 C.2    19  GLN19       0.2260
     30  O        142.1130   32.4310  120.6210 O.2    19  GLN19      -0.2867
     31  CB       141.0360   34.0270  118.6600 C.3    19  GLN19       0.0367
     32  CG       140.1500   34.7480  117.6280 C.3    19  GLN19       0.0905
     33  CD       140.6820   34.6530  116.2110 C.2    19  GLN19       0.2608
     34  OE1      140.8290   35.6570  115.5230 O.2    19  GLN19      -0.2717
     35  NE2      140.9560   33.4350  115.7670 N.am   19  GLN19      -0.0878
     36  N        139.4380   42.8620  111.4380 N.3    58  THR58      -0.1203
     37  CA       138.5620   43.6770  112.2970 C.3    58  THR58       0.1994
     38  C        137.5930   42.8920  113.1570 C.2    58  THR58       0.2618
     39  O        136.9050   42.0090  112.6640 O.2    58  THR58      -0.2717
     40  CB       137.6890   44.6550  111.4860 C.3    58  THR58       0.1784
     41  OG1      138.4640   45.3140  110.4810 O.3    58  THR58      -0.2211
     42  CG2      137.1160   45.7000  112.4100 C.3    58  THR58       0.0376
     43  N        137.5230   43.2310  114.4380 N.am   59  GLY59      -0.1942
     44  CA       136.5950   42.5590  115.3320 C.3    59  GLY59       0.2014
     45  C        136.4900   41.0490  115.2180 C.2    59  GLY59       0.2639
     46  O        135.5190   40.5100  114.6810 O.2    59  GLY59      -0.2714
     47  N        137.5040   40.3660  115.7340 N.am   60  VAL60      -0.1963
     48  CA       137.5490   38.9250  115.7260 C.3    60  VAL60       0.1727
     49  C        138.0880   38.5270  117.0560 C.2    60  VAL60       0.2617
     50  O        138.4870   37.3990  117.2290 O.2    60  VAL60      -0.2715
     51  CB       138.4750   38.3950  114.6600 C.3    60  VAL60       0.0290
     52  CG1      137.8010   38.4840  113.3160 C.3    60  VAL60       0.0023
     53  CG2      139.7620   39.1860  114.6710 C.3    60  VAL60       0.0023
     54  N        138.1490   39.4700  117.9820 N.am   61  GLY61      -0.1940
     55  CA       138.6020   39.1270  119.3080 C.3    61  GLY61       0.2014
     56  C        139.7290   39.8520  120.0180 C.2    61  GLY61       0.2639
     57  O        139.7330   39.9310  121.2630 O.2    61  GLY61      -0.2714
     58  N        140.6860   40.3890  119.2760 N.am   62  LYS62      -0.1963
     59  CA       141.8030   41.0640  119.9280 C.3    62  LYS62       0.1728
     60  C        141.3850   41.7590  121.2100 C.2    62  LYS62       0.2617
     61  O        141.8490   41.4200  122.2980 O.2    62  LYS62      -0.2715
     62  CB       142.4490   42.0680  118.9840 C.3    62  LYS62       0.0311
     63  CG       142.8500   41.4390  117.6870 C.3    62  LYS62       0.0038
     64  CD       143.6820   42.3350  116.8290 C.3    62  LYS62       0.0206
     65  CE       143.3690   42.1250  115.3510 C.3    62  LYS62       0.1093
     66  NZ       142.0090   42.6300  115.0550 N.3    62  LYS62      -0.1314
     67  N        140.4720   42.7030  121.0940 N.am   63  THR63      -0.1937
     68  CA       140.0560   43.4190  122.2690 C.3    63  THR63       0.2028
     69  C        139.3760   42.6060  123.3650 C.2    63  THR63       0.2642
     70  O        139.7310   42.7560  124.5310 O.2    63  THR63      -0.2714
     71  CB       139.1450   44.5510  121.9000 C.3    63  THR63       0.1808
     72  OG1      139.7570   45.3350  120.8670 O.3    63  THR63      -0.2208
     73  CG2      138.8600   45.4010  123.1510 C.3    63  THR63       0.0379
     74  N        138.3970   41.7680  123.0150 N.am   64  GLU64      -0.1976
     75  CA       137.6940   40.9880  124.0320 C.3    64  GLU64       0.1602
     76  C        138.6940   40.1940  124.8270 C.2    64  GLU64       0.2287
     77  O        138.7310   40.2420  126.0690 O.2    64  GLU64      -0.2864
     78  CB       136.6610   40.0490  123.4100 C.3    64  GLU64       0.0415
     79  CG       135.2810   40.6840  123.2270 C.3    64  GLU64       0.1163
     80  CD       134.5460   40.9660  124.5440 C.2    64  GLU64       0.3649
     81  OE1      134.1250   42.1260  124.7530 O.co2  64  GLU64      -0.2457
     82  OE2      134.3760   40.0360  125.3650 O.co2  64  GLU64      -0.2457
     83  N        141.9730   50.7820  127.5580 N.3    79  LYS79      -0.1245
     84  CA       142.2300   50.7040  126.1360 C.3    79  LYS79       0.1561
     85  C        142.3940   52.1060  125.5950 C.2    79  LYS79       0.2260
     86  O        141.7800   53.0410  126.1030 O.2    79  LYS79      -0.2867
     87  CB       141.0730   49.9840  125.4280 C.3    79  LYS79       0.0271
     88  CG       141.0830   50.1130  123.9050 C.3    79  LYS79       0.0035
     89  CD       140.0220   49.2450  123.2590 C.3    79  LYS79       0.0206
     90  CE       139.9810   49.4550  121.7620 C.3    79  LYS79       0.1093
     91  NZ       138.9620   48.5960  121.0920 N.3    79  LYS79      -0.1314
     92  N        145.1970   49.9300  120.8460 N.3   136  ASP136     -0.1225
     93  CA       144.5500   49.5580  119.6050 C.3   136  ASP136      0.1805
     94  C        145.1220   50.2420  118.3730 C.2   136  ASP136      0.2597
     95  O        145.7130   51.3100  118.4630 O.2   136  ASP136     -0.2718
     96  CB       143.0490   49.8130  119.6960 C.3   136  ASP136      0.1424
     97  CG       142.2630   48.9740  118.7050 C.2   136  ASP136      0.3668
     98  OD1      142.7560   47.8780  118.3660 O.co2 136  ASP136     -0.2456
     99  OD2      141.1590   49.3790  118.2700 O.co2 136  ASP136     -0.2456
    100  N        144.9340   49.5990  117.2210 N.am  137  GLU137     -0.1979
    101  CA       145.4080   50.0700  115.9160 C.3   137  GLU137      0.1602
    102  C        146.7740   50.8010  115.9070 C.2   137  GLU137      0.2287
    103  O        146.9500   51.8690  115.3300 O.2   137  GLU137     -0.2864
    104  CB       144.2910   50.8860  115.2280 C.3   137  GLU137      0.0415
    105  CG       143.1620   49.9630  114.6890 C.3   137  GLU137      0.1163
    106  CD       142.0190   50.6710  113.9490 C.2   137  GLU137      0.3649
    107  OE1      141.1690   49.9660  113.3420 O.co2 137  GLU137     -0.2457
    108  OE2      141.9600   51.9180  113.9760 O.co2 137  GLU137     -0.2457
    109  N        147.4570   46.0940  119.4580 N.3   183  SER183     -0.1202
    110  CA       146.7350   45.4220  118.3880 C.3   183  SER183      0.2020
    111  C        146.8850   46.1010  117.0410 C.2   183  SER183      0.2619
    112  O        147.3220   47.2170  116.9790 O.2   183  SER183     -0.2717
    113  CB       145.2400   45.3690  118.7350 C.3   183  SER183      0.2103
    114  OG       144.4320   46.0330  117.7530 O.3   183  SER183     -0.2182
    115  N        146.4910   45.4320  115.9680 N.am  184  GLY184     -0.1956
    116  CA       146.5700   46.0360  114.6590 C.3   184  GLY184      0.1869
    117  C        146.3830   45.0480  113.5260 C.2   184  GLY184      0.2309
    118  O        146.7800   43.9030  113.6410 O.2   184  GLY184     -0.2863
    119  N        137.0140   35.5200  110.9460 N.3   211  LEU211     -0.1245
    120  CA       135.9430   34.7150  111.5050 C.3   211  LEU211      0.1561
    121  C        135.0770   34.1270  110.3930 C.2   211  LEU211      0.2260
    122  O        134.7770   34.7930  109.4030 O.2   211  LEU211     -0.2867
    123  CB       135.1290   35.5590  112.4890 C.3   211  LEU211      0.0270
    124  CG       135.3200   35.1530  113.9650 C.3   211  LEU211      0.0019
    125  CD1      136.7610   34.8730  114.2170 C.3   211  LEU211      0.0001
    126  CD2      134.8570   36.2330  114.9050 C.3   211  LEU211      0.0001
    127  N        129.6530   31.7910  117.9060 N.3   219  ILE219     -0.1245
    128  CA       129.6910   33.0550  118.6570 C.3   219  ILE219      0.1561
    129  C        128.2540   33.3930  118.8780 C.2   219  ILE219      0.2260
    130  O        127.8920   34.0610  119.8420 O.2   219  ILE219     -0.2867
    131  CB       130.2840   34.2540  117.8460 C.3   219  ILE219      0.0252
    132  CG1      130.7990   33.7900  116.4870 C.3   219  ILE219      0.0019
    133  CG2      131.4100   34.9230  118.6310 C.3   219  ILE219      0.0019
    134  CD1      132.1430   33.0880  116.5580 C.3   219  ILE219      0.0001
    135  N        129.1250   31.3090  123.5480 N.3   223  PRO223     -0.2116
    136  CA       129.5960   32.3600  124.4610 C.3   223  PRO223      0.1372
    137  C        128.6960   32.7290  125.6470 C.2   223  PRO223      0.2244
    138  O        127.5370   33.0480  125.4360 O.2   223  PRO223     -0.2868
    139  CB       129.7400   33.5500  123.5370 C.3   223  PRO223      0.0268
    140  CG       130.0140   32.9300  122.2050 C.3   223  PRO223      0.0207
    141  CD       129.0640   31.8130  122.1690 C.3   223  PRO223      0.0892
    142  N        132.7880   40.3420  113.5320 N.3   268  ALA268     -0.1231
    143  CA       131.6720   39.8260  114.3110 C.3   268  ALA268      0.1694
    144  C        130.6140   40.8550  114.6150 C.2   268  ALA268      0.2591
    145  O        129.4910   40.4950  114.9490 O.2   268  ALA268     -0.2718
    146  CB       132.1670   39.2330  115.5940 C.3   268  ALA268      0.0304
    147  N        130.9520   42.1320  114.5280 N.am  269  ARG269     -0.1980
    148  CA       129.9420   43.1320  114.8020 C.3   269  ARG269      0.1597
    149  C        128.7530   42.8410  113.9160 C.2   269  ARG269      0.2287
    150  O        127.5980   42.9820  114.3340 O.2   269  ARG269     -0.2864
    151  CB       130.4610   44.5300  114.5160 C.3   269  ARG269      0.0334
    152  CG       131.0990   45.1720  115.7170 C.3   269  ARG269      0.0492
    153  CD       130.1290   45.2170  116.8920 C.3   269  ARG269      0.2205
    154  NE       130.7560   45.8300  118.0610 N.pl3 269  ARG269     -0.0865
    155  CZ       130.1750   45.9750  119.2500 C.cat 269  ARG269      0.5346
    156  NH1      128.9320   45.5480  119.4430 N.pl3 269  ARG269      0.1354
    157  NH2      130.8410   46.5520  120.2490 N.pl3 269  ARG269      0.1354
    158  N        125.6760   41.5480  115.6200 N.3   272  HIS272     -0.1241
    159  CA       124.8370   42.5040  116.3520 C.3   272  HIS272      0.1621
    160  C        123.9680   43.2780  115.3900 C.2   272  HIS272      0.2264
    161  O        122.8520   43.6780  115.7440 O.2   272  HIS272     -0.2867
    162  CB       125.6760   43.4780  117.1370 C.3   272  HIS272      0.0745
    163  CG       126.5100   42.8270  118.1750 C.ar  272  HIS272      0.0817
    164  ND1      126.3910   43.1280  119.5130 N.ar  272  HIS272     -0.2268
    165  CD2      127.4790   41.8870  118.0780 C.ar  272  HIS272      0.1154
    166  CE1      127.2560   42.4000  120.1980 C.ar  272  HIS272      0.1986
    167  NE2      127.9280   41.6390  119.3510 N.ar  272  HIS272     -0.2212
@<TRIPOS>BOND
     1   122   121    2
     2   121   120    1
     3    41    40    1
     4   119   120    1
     5    36    37    1
     6    40    37    1
     7    40    42    1
     8   120   123    1
     9    37    38    1
    10   123   124    1
    11    39    38    2
    12    38    43   am
    13    52    51    1
    14   107   106   ar
    15   117   118    2
    16   117   116    1
    17   142   143    1
    18   149   150    2
    19   149   148    1
    20   106   108   ar
    21   106   105    1
    22   124   125    1
    23   124   126    1
    24   143   144    1
    25   143   146    1
    26    43    44    1
    27   151   148    1
    28   151   152    1
    29   147   144   am
    30   147   148    1
    31   144   145    2
    32   116   115    1
    33    51    53    1
    34    51    48    1
    35    46    45    2
    36   105   104    1
    37    66    65    1
    38    45    44    1
    39    45    47   am
    40   104   101    1
    41   103   102    2
    42    65    64    1
    43   160   161    2
    44   160   159    1
    45    34    33    2
    46   158   159    1
    47   152   153    1
    48    48    47    1
    49    48    49    1
    50    35    33   am
    51   102   101    1
    52   101   100    1
    53   115   111   am
    54    33    32    1
    55   159   162    1
    56   132   134    1
    57   132   131    1
    58    64    63    1
    59   153   154    1
    60   112   111    2
    61   111   110    1
    62    49    50    2
    63    49    54   am
    64   162   163    1
    65   100    94   am
    66    32    31    1
    67    63    62    1
    68   114   113    1
    69   131   133    1
    70   131   128    1
    71   127   128    1
    72    27    28    1
    73    54    55    1
    74   154   155    2
    75   165   163   ar
    76   165   167   ar
    77   163   164   ar
    78    25    23    1
    79    99    97   ar
    80    28    31    1
    81    28    29    1
    82    98    97   ar
    83    94    95    2
    84    94    93    1
    85   110   113    1
    86   110   109    1
    87    22    21    2
    88   128   129    1
    89    97    96    1
    90   129   130    2
    91    62    59    1
    92    23    24    1
    93    23    20    1
    94   155   156    1
    95   155   157    1
    96    21    20    1
    97    58    59    1
    98    58    56   am
    99    55    56    1
   100   167   166   ar
   101    29    30    2
   102   164   166   ar
   103    93    96    1
   104    93    92    1
   105    24    26    1
   106    59    60    1
   107    56    57    2
   108    20    19    1
   109    19    13   am
   110    72    71    1
   111    91    90    1
   112    67    60   am
   113    67    68    1
   114    60    61    2
   115    17    15    1
   116    90    89    1
   117    71    68    1
   118    71    73    1
   119    13    14    2
   120    13    12    1
   121   141   140    1
   122   141   135    1
   123   140   139    1
   124    68    69    1
   125    15    12    1
   126    15    16    1
   127    12    11    1
   128    74    69   am
   129    74    75    1
   130    79    78    1
   131    79    80    1
   132    89    88    1
   133    69    70    2
   134    78    75    1
   135    16    18    1
   136   139   136    1
   137   135   136    1
   138     4     3    2
   139    88    87    1
   140    75    76    1
   141    11     3   am
   142   136   137    1
   143    80    81   ar
   144    80    82   ar
   145     3     2    1
   146    76    77    2
   147    87    84    1
   148   138   137    2
   149    85    86    2
   150    85    84    1
   151     2     1    1
   152     2     5    1
   153    84    83    1
   154     5     6    1
   155     6     8   ar
   156     6     7   ar
   157     8    10   ar
   158     7     9   ar
   159    10     9   ar
