@<TRIPOS>MOLECULE
tmp/1g3iV00.pdb
 164 158 0 0 0
SMALL
GASTEIGER

@<TRIPOS>ATOM
      1  N        126.8810   67.0170   -3.4340 N.3    15  HIS15      -0.1226
      2  CA       128.0340   66.3340   -2.8440 C.3    15  HIS15       0.1752
      3  C        128.2510   66.7970   -1.4030 C.2    15  HIS15       0.2596
      4  O        129.0450   66.2060   -0.6670 O.2    15  HIS15      -0.2718
      5  CB       129.3130   66.6210   -3.6430 C.3    15  HIS15       0.0759
      6  CG       129.1740   66.4110   -5.1190 C.ar   15  HIS15       0.0818
      7  ND1      128.5430   67.3180   -5.9440 N.ar   15  HIS15      -0.2268
      8  CD2      129.5890   65.4000   -5.9190 C.ar   15  HIS15       0.1154
      9  CE1      128.5770   66.8750   -7.1890 C.ar   15  HIS15       0.1986
     10  NE2      129.2060   65.7130   -7.2010 N.ar   15  HIS15      -0.2212
     11  N        127.5450   67.8560   -1.0120 N.am   16  ILE16      -0.1966
     12  CA       127.6650   68.4250    0.3290 C.3    16  ILE16       0.1727
     13  C        126.3230   68.9630    0.8190 C.2    16  ILE16       0.2616
     14  O        126.1220   70.1760    0.8990 O.2    16  ILE16      -0.2715
     15  CB       128.6940   69.5790    0.3360 C.3    16  ILE16       0.0290
     16  CG1      130.0580   69.0560   -0.1240 C.3    16  ILE16       0.0022
     17  CG2      128.7950   70.1850    1.7270 C.3    16  ILE16       0.0023
     18  CD1      131.0730   70.1340   -0.3980 C.3    16  ILE16       0.0001
     19  N        125.4040   68.0610    1.1470 N.am   17  ILE17      -0.1977
     20  CA       124.0930   68.4820    1.6200 C.3    17  ILE17       0.1596
     21  C        124.2080   69.0120    3.0340 C.2    17  ILE17       0.2287
     22  O        124.9980   68.5120    3.8270 O.2    17  ILE17      -0.2864
     23  CB       123.0680   67.3190    1.5990 C.3    17  ILE17       0.0276
     24  CG1      121.6690   67.8450    1.9450 C.3    17  ILE17       0.0022
     25  CG2      123.4690   66.2480    2.5910 C.3    17  ILE17       0.0022
     26  CD1      121.1230   68.8750    0.9630 C.3    17  ILE17       0.0001
     27  N        124.8060   72.3730    5.6420 N.3    19  GLN19      -0.1245
     28  CA       125.4550   73.6820    5.6960 C.3    19  GLN19       0.1566
     29  C        124.4920   74.7550    5.2120 C.2    19  GLN19       0.2260
     30  O        123.2740   74.5920    5.3050 O.2    19  GLN19      -0.2867
     31  CB       126.7160   73.6970    4.8280 C.3    19  GLN19       0.0367
     32  CG       127.7630   72.6700    5.2310 C.3    19  GLN19       0.0905
     33  CD       128.1840   72.7990    6.6820 C.2    19  GLN19       0.2608
     34  OE1      128.5430   73.8830    7.1420 O.2    19  GLN19      -0.2717
     35  NE2      128.1490   71.6870    7.4100 N.am   19  GLN19      -0.0878
     36  N        133.1450   71.8430   13.0740 N.3    57  PRO57      -0.2102
     37  CA       133.6340   70.5400   13.5450 C.3    57  PRO57       0.1504
     38  C        134.5800   69.7960   12.5990 C.2    57  PRO57       0.2576
     39  O        135.1380   70.3740   11.6560 O.2    57  PRO57      -0.2718
     40  CB       132.3480   69.7640   13.7880 C.3    57  PRO57       0.0282
     41  CG       131.4390   70.8390   14.3070 C.3    57  PRO57       0.0208
     42  CD       131.7080   71.9920   13.3620 C.3    57  PRO57       0.0893
     43  N        134.7700   68.5090   12.8800 N.am   58  THR58      -0.1939
     44  CA       135.6390   67.6620   12.0720 C.3    58  THR58       0.2028
     45  C        134.8170   66.5400   11.4480 C.2    58  THR58       0.2643
     46  O        134.6400   65.4740   12.0450 O.2    58  THR58      -0.2714
     47  CB       136.7860   67.0550   12.9200 C.3    58  THR58       0.1808
     48  OG1      137.7180   68.0860   13.2740 O.3    58  THR58      -0.2208
     49  CG2      137.5150   65.9660   12.1410 C.3    58  THR58       0.0379
     50  N        134.3120   66.8020   10.2440 N.am   59  GLY59      -0.1939
     51  CA       133.5040   65.8280    9.5300 C.3    59  GLY59       0.2014
     52  C        132.3350   66.4430    8.7740 C.2    59  GLY59       0.2639
     53  O        131.7910   65.8210    7.8610 O.2    59  GLY59      -0.2714
     54  N        131.9490   67.6620    9.1520 N.am   60  VAL60      -0.1963
     55  CA       130.8340   68.3580    8.5080 C.3    60  VAL60       0.1727
     56  C        131.2060   68.8390    7.1140 C.2    60  VAL60       0.2617
     57  O        130.3710   69.3860    6.3920 O.2    60  VAL60      -0.2715
     58  CB       130.3620   69.5870    9.3290 C.3    60  VAL60       0.0290
     59  CG1      130.0220   69.1630   10.7470 C.3    60  VAL60       0.0023
     60  CG2      131.4300   70.6730    9.3220 C.3    60  VAL60       0.0023
     61  N        132.4670   68.6490    6.7480 N.am   61  GLY61      -0.1940
     62  CA       132.9140   69.0580    5.4320 C.3    61  GLY61       0.2014
     63  C        133.2790   70.5220    5.2760 C.2    61  GLY61       0.2639
     64  O        132.4200   71.3820    5.0740 O.2    61  GLY61      -0.2714
     65  N        134.5730   70.7970    5.3810 N.am   62  LYS62      -0.1963
     66  CA       135.0990   72.1400    5.2140 C.3    62  LYS62       0.1728
     67  C        136.0660   72.0230    4.0500 C.2    62  LYS62       0.2617
     68  O        136.3680   73.0020    3.3790 O.2    62  LYS62      -0.2715
     69  CB       135.8460   72.6030    6.4680 C.3    62  LYS62       0.0311
     70  CG       134.9550   72.8390    7.6790 C.3    62  LYS62       0.0038
     71  CD       135.7230   73.4270    8.8680 C.3    62  LYS62       0.0206
     72  CE       136.5890   72.3930    9.5790 C.3    62  LYS62       0.1093
     73  NZ       137.7270   71.9070    8.7550 N.3    62  LYS62      -0.1314
     74  N        136.5410   70.8030    3.8200 N.am   63  THR63      -0.1937
     75  CA       137.4670   70.5270    2.7300 C.3    63  THR63       0.2028
     76  C        136.6830   70.1810    1.4660 C.2    63  THR63       0.2642
     77  O        137.1050   70.5040    0.3550 O.2    63  THR63      -0.2714
     78  CB       138.4130   69.3550    3.0780 C.3    63  THR63       0.1808
     79  OG1      139.2560   69.7290    4.1730 O.3    63  THR63      -0.2208
     80  CG2      139.2840   68.9930    1.8850 C.3    63  THR63       0.0379
     81  N        135.5420   69.5220    1.6350 N.am   64  GLU64      -0.1976
     82  CA       134.7220   69.1630    0.4870 C.3    64  GLU64       0.1602
     83  C        134.2410   70.4170   -0.2250 C.2    64  GLU64       0.2287
     84  O        134.3230   70.5100   -1.4470 O.2    64  GLU64      -0.2864
     85  CB       133.5200   68.3190    0.9170 C.3    64  GLU64       0.0415
     86  CG       133.7990   66.8250    1.0040 C.3    64  GLU64       0.1163
     87  CD       134.1730   66.2190   -0.3380 C.2    64  GLU64       0.3649
     88  OE1      135.2170   66.6160   -0.9030 O.co2  64  GLU64      -0.2457
     89  OE2      133.4240   65.3460   -0.8290 O.co2  64  GLU64      -0.2457
     90  N        145.6450   71.5640   -0.5640 N.3    79  LYS79      -0.1245
     91  CA       145.3250   71.5650    0.8610 C.3    79  LYS79       0.1561
     92  C        146.5930   71.3310    1.6790 C.2    79  LYS79       0.2260
     93  O        147.4130   70.4750    1.3440 O.2    79  LYS79      -0.2867
     94  CB       144.2870   70.4850    1.1900 C.3    79  LYS79       0.0271
     95  CG       143.7320   70.5860    2.6110 C.3    79  LYS79       0.0035
     96  CD       142.5760   69.6260    2.8730 C.3    79  LYS79       0.0206
     97  CE       143.0360   68.1700    2.9410 C.3    79  LYS79       0.1093
     98  NZ       141.9170   67.2710    3.3570 N.3    79  LYS79      -0.1314
     99  N        143.8570   73.4490    6.2320 N.3   129  ASP129     -0.1225
    100  CA       143.0530   72.6600    7.1620 C.3   129  ASP129      0.1805
    101  C        143.6270   72.7590    8.5780 C.2   129  ASP129      0.2597
    102  O        144.8340   72.9330    8.7530 O.2   129  ASP129     -0.2718
    103  CB       143.0090   71.1960    6.6880 C.3   129  ASP129      0.1424
    104  CG       141.9580   70.3590    7.4220 C.2   129  ASP129      0.3668
    105  OD1      140.8570   70.8900    7.7030 O.co2 129  ASP129     -0.2456
    106  OD2      142.2300   69.1640    7.6970 O.co2 129  ASP129     -0.2456
    107  N        142.7520   72.6590    9.5800 N.am  130  GLU130     -0.1979
    108  CA       143.1480   72.7390   10.9910 C.3   130  GLU130      0.1602
    109  C        144.2080   73.8290   11.2030 C.2   130  GLU130      0.2287
    110  O        145.4030   73.5450   11.2560 O.2   130  GLU130     -0.2864
    111  CB       143.6900   71.3830   11.4760 C.3   130  GLU130      0.0415
    112  CG       142.8140   70.1580   11.1400 C.3   130  GLU130      0.1163
    113  CD       141.9180   69.6850   12.2890 C.2   130  GLU130      0.3649
    114  OE1      141.0350   70.4540   12.7300 O.co2 130  GLU130     -0.2457
    115  OE2      142.0950   68.5320   12.7460 O.co2 130  GLU130     -0.2457
    116  N        126.6990   67.7920   11.8030 N.3   205  LEU205     -0.1245
    117  CA       125.7900   66.9140   11.0640 C.3   205  LEU205      0.1561
    118  C        124.8650   66.1930   12.0460 C.2   205  LEU205      0.2260
    119  O        125.3390   65.4980   12.9450 O.2   205  LEU205     -0.2867
    120  CB       126.5830   65.8750   10.2590 C.3   205  LEU205      0.0270
    121  CG       127.8120   66.3310    9.4670 C.3   205  LEU205      0.0019
    122  CD1      128.3980   65.1350    8.7160 C.3   205  LEU205      0.0001
    123  CD2      127.4350   67.4530    8.5060 C.3   205  LEU205      0.0001
    124  N        122.7610   62.6160    3.4830 N.3   213  ILE213     -0.1245
    125  CA       124.1080   62.4510    2.9330 C.3   213  ILE213      0.1561
    126  C        124.3550   61.0090    2.4850 C.2   213  ILE213      0.2260
    127  O        125.3370   60.7060    1.8020 O.2   213  ILE213     -0.2867
    128  CB       125.1740   62.8360    3.9860 C.3   213  ILE213      0.0252
    129  CG1      125.2280   64.3550    4.1280 C.3   213  ILE213      0.0019
    130  CG2      126.5350   62.2830    3.6000 C.3   213  ILE213      0.0019
    131  CD1      126.1870   64.8380    5.1780 C.3   213  ILE213      0.0001
    132  N        123.1680   62.9550   -2.4710 N.3   217  PRO217     -0.2116
    133  CA       124.4010   63.3590   -3.1550 C.3   217  PRO217      0.1372
    134  C        124.9270   62.3700   -4.1950 C.2   217  PRO217      0.2244
    135  O        124.8310   61.1520   -4.0250 O.2   217  PRO217     -0.2868
    136  CB       125.3910   63.5390   -2.0050 C.3   217  PRO217      0.0268
    137  CG       124.5120   63.9170   -0.8530 C.3   217  PRO217      0.0207
    138  CD       123.3680   62.9500   -1.0110 C.3   217  PRO217      0.0892
    139  N        130.9080   62.6720    8.8950 N.3   262  ALA262     -0.1231
    140  CA       130.5090   61.8180    7.7820 C.3   262  ALA262      0.1694
    141  C        131.3400   60.5410    7.6760 C.2   262  ALA262      0.2591
    142  O        130.7910   59.4460    7.5340 O.2   262  ALA262     -0.2718
    143  CB       130.5940   62.5960    6.4920 C.3   262  ALA262      0.0304
    144  N        132.6610   60.6930    7.7390 N.am  263  ARG263     -0.1980
    145  CA       133.5830   59.5600    7.6570 C.3   263  ARG263      0.1597
    146  C        133.1440   58.3870    8.5380 C.2   263  ARG263      0.2287
    147  O        133.5850   57.2520    8.3370 O.2   263  ARG263     -0.2864
    148  CB       134.9970   59.9970    8.0570 C.3   263  ARG263      0.0334
    149  CG       135.6870   60.9140    7.0580 C.3   263  ARG263      0.0492
    150  CD       136.9560   61.5050    7.6560 C.3   263  ARG263      0.2205
    151  NE       137.7080   62.3090    6.6970 N.pl3 263  ARG263     -0.0865
    152  CZ       138.7730   63.0410    7.0080 C.cat 263  ARG263      0.5346
    153  NH1      139.2160   63.0770    8.2570 N.pl3 263  ARG263      0.1354
    154  NH2      139.4010   63.7360    6.0690 N.pl3 263  ARG263      0.1354
    155  N        131.2380   55.7780    6.4310 N.3   266  HIS266     -0.1241
    156  CA       132.0830   54.8280    5.7090 C.3   266  HIS266      0.1621
    157  C        132.3580   53.5960    6.5680 C.2   266  HIS266      0.2264
    158  O        132.1220   52.4620    6.1430 O.2   266  HIS266     -0.2867
    159  CB       133.4210   55.4700    5.3210 C.3   266  HIS266      0.0745
    160  CG       133.2980   56.6250    4.3750 C.ar  266  HIS266      0.0817
    161  ND1      134.3960   57.2760    3.8540 N.ar  266  HIS266     -0.2268
    162  CD2      132.2120   57.2530    3.8650 C.ar  266  HIS266      0.1154
    163  CE1      133.9930   58.2550    3.0640 C.ar  266  HIS266      0.1986
    164  NE2      132.6710   58.2630    3.0530 N.ar  266  HIS266     -0.2212
@<TRIPOS>BOND
     1    10     9   ar
     2    10     8   ar
     3     9     7   ar
     4     7     6   ar
     5     8     6   ar
     6     6     5    1
     7   134   135    2
     8   134   133    1
     9     5     2    1
    10     1     2    1
    11   133   132    1
    12   133   136    1
    13     2     3    1
    14   132   138    1
    15   136   137    1
    16    84    83    2
    17     3    11   am
    18     3     4    2
    19    11    12    1
    20   138   137    1
    21    88    87   ar
    22    89    87   ar
    23    90    91    1
    24    18    16    1
    25    87    86    1
    26    83    82    1
    27    16    15    1
    28    12    15    1
    29    12    13    1
    30    15    17    1
    31    77    76    2
    32    82    85    1
    33    82    81    1
    34    13    14    2
    35    13    19   am
    36    91    94    1
    37    91    92    1
    38    85    86    1
    39    26    24    1
    40    19    20    1
    41    94    95    1
    42    93    92    2
    43    76    81   am
    44    76    75    1
    45    23    20    1
    46    23    24    1
    47    23    25    1
    48    20    21    1
    49   127   126    2
    50    80    78    1
    51   126   125    1
    52    95    96    1
    53    75    78    1
    54    75    74    1
    55    96    97    1
    56   125   124    1
    57   125   128    1
    58    97    98    1
    59    21    22    2
    60   164   163   ar
    61   164   162   ar
    62   163   161   ar
    63    78    79    1
    64    68    67    2
    65   130   128    1
    66    74    67   am
    67   161   160   ar
    68   162   160   ar
    69   128   129    1
    70    67    66    1
    71   129   131    1
    72   160   159    1
    73    31    32    1
    74    31    28    1
    75    64    63    2
    76    29    30    2
    77    29    28    1
    78    66    65    1
    79    66    69    1
    80    32    33    1
    81    63    65   am
    82    63    62    1
    83   159   156    1
    84    62    61    1
    85    27    28    1
    86   156   155    1
    87   156   157    1
    88   154   152    1
    89   158   157    2
    90    99   100    1
    91    57    56    2
    92    69    70    1
    93   143   140    1
    94    33    34    2
    95    33    35   am
    96   103   100    1
    97   103   104    1
    98   151   152    2
    99   151   150    1
   100    61    56   am
   101   152   153    1
   102   149   150    1
   103   149   148    1
   104    56    55    1
   105   100   101    1
   106   104   106   ar
   107   104   105   ar
   108   142   141    2
   109   145   144    1
   110   145   148    1
   111   145   146    1
   112   141   144   am
   113   141   140    1
   114    70    71    1
   115   140   139    1
   116    53    52    2
   117   147   146    2
   118   123   121    1
   119    55    54    1
   120    55    58    1
   121   101   102    2
   122   101   107   am
   123   122   121    1
   124    73    72    1
   125    52    54   am
   126    52    51    1
   127    71    72    1
   128    60    58    1
   129    58    59    1
   130   121   120    1
   131    51    50    1
   132   107   108    1
   133    50    45   am
   134   120   117    1
   135   108   109    1
   136   108   111    1
   137   117   116    1
   138   117   118    1
   139   112   111    1
   140   112   113    1
   141   109   110    2
   142    45    46    2
   143    45    44    1
   144    39    38    2
   145   118   119    2
   146    44    43    1
   147    44    47    1
   148    49    47    1
   149   113   114   ar
   150   113   115   ar
   151    38    43   am
   152    38    37    1
   153    47    48    1
   154    36    42    1
   155    36    37    1
   156    42    41    1
   157    37    40    1
   158    40    41    1
