@<TRIPOS>MOLECULE
tmp/1g3mA01.pdb
 192 187 0 0 0
SMALL
GASTEIGER

@<TRIPOS>ATOM
      1  N        -13.9830   -6.1090   29.2770 N.3    18  TYR18      -0.1241
      2  CA       -13.9880   -7.1590   28.2710 C.3    18  TYR18       0.1605
      3  C        -15.4310   -7.2630   27.7970 C.2    18  TYR18       0.2264
      4  O        -16.3440   -7.4330   28.6070 O.2    18  TYR18      -0.2867
      5  CB       -13.5540   -8.4910   28.8780 C.3    18  TYR18       0.0534
      6  CG       -12.1060   -8.5050   29.3060 C.ar   18  TYR18      -0.0201
      7  CD1      -11.7460   -8.2900   30.6360 C.ar   18  TYR18      -0.0009
      8  CD2      -11.0920   -8.7070   28.3690 C.ar   18  TYR18      -0.0009
      9  CE1      -10.4020   -8.2780   31.0230 C.ar   18  TYR18       0.0417
     10  CE2       -9.7530   -8.6950   28.7430 C.ar   18  TYR18       0.0417
     11  CZ        -9.4150   -8.4810   30.0710 C.ar   18  TYR18       0.1957
     12  OH        -8.0870   -8.4730   30.4370 O.3    18  TYR18      -0.2866
     13  N        -17.1950   -9.5850   26.4430 N.3    20  ASP20      -0.1225
     14  CA       -17.9020  -10.7920   26.8580 C.3    20  ASP20       0.1805
     15  C        -18.5110  -10.6630   28.2560 C.2    20  ASP20       0.2597
     16  O        -19.5990  -11.1870   28.5150 O.2    20  ASP20      -0.2718
     17  CB       -16.9670  -12.0090   26.8160 C.3    20  ASP20       0.1424
     18  CG       -16.6560  -12.4650   25.3960 C.2    20  ASP20       0.3668
     19  OD1      -17.5280  -12.3060   24.5210 O.co2  20  ASP20      -0.2456
     20  OD2      -15.5500  -12.9980   25.1560 O.co2  20  ASP20      -0.2456
     21  N        -17.8130   -9.9710   29.1540 N.am   21  PHE21      -0.1976
     22  CA       -18.3050   -9.7860   30.5200 C.3    21  PHE21       0.1639
     23  C        -19.5210   -8.8520   30.5360 C.2    21  PHE21       0.2290
     24  O        -20.5210   -9.1150   31.2100 O.2    21  PHE21      -0.2864
     25  CB       -17.2200   -9.1690   31.4290 C.3    21  PHE21       0.0560
     26  CG       -15.9830  -10.0210   31.6200 C.ar   21  PHE21      -0.0200
     27  CD1      -15.0230   -9.6460   32.5640 C.ar   21  PHE21      -0.0042
     28  CD2      -15.7560  -11.1620   30.8590 C.ar   21  PHE21      -0.0042
     29  CE1      -13.8560  -10.3920   32.7440 C.ar   21  PHE21      -0.0003
     30  CE2      -14.5920  -11.9150   31.0280 C.ar   21  PHE21      -0.0003
     31  CZ       -13.6390  -11.5300   31.9730 C.ar   21  PHE21      -0.0000
     32  N         -5.9170   -5.7190   37.5330 N.3    44  PRO44      -0.2102
     33  CA        -5.2580   -6.8370   36.8470 C.3    44  PRO44       0.1504
     34  C         -3.7280   -6.8870   36.9580 C.2    44  PRO44       0.2575
     35  O         -3.0570   -5.8540   36.9310 O.2    44  PRO44      -0.2718
     36  CB        -5.7100   -6.6580   35.4010 C.3    44  PRO44       0.0282
     37  CG        -7.1060   -6.1120   35.5580 C.3    44  PRO44       0.0208
     38  CD        -6.9240   -5.0810   36.6630 C.3    44  PRO44       0.0893
     39  N         -3.1970   -8.1010   37.0890 N.am   45  LYS45      -0.1980
     40  CA        -1.7570   -8.3650   37.1340 C.3    45  LYS45       0.1596
     41  C         -0.9960   -7.7950   38.3260 C.2    45  LYS45       0.2287
     42  O          0.1890   -7.4700   38.2070 O.2    45  LYS45      -0.2864
     43  CB        -1.1010   -7.8760   35.8280 C.3    45  LYS45       0.0298
     44  CG        -1.8950   -8.2080   34.5510 C.3    45  LYS45       0.0038
     45  CD        -2.4010   -9.6690   34.5230 C.3    45  LYS45       0.0206
     46  CE        -1.2570  -10.6700   34.6020 C.3    45  LYS45       0.1093
     47  NZ        -1.7350  -12.0710   34.7590 N.3    45  LYS45      -0.1314
     48  N         -8.6820  -21.2120   39.3890 N.3    73  PHE73      -0.1241
     49  CA        -9.8080  -20.4400   38.8780 C.3    73  PHE73       0.1605
     50  C        -11.1660  -21.1150   39.0670 C.2    73  PHE73       0.2264
     51  O        -12.2050  -20.5280   38.7590 O.2    73  PHE73      -0.2867
     52  CB        -9.6030  -20.0240   37.4110 C.3    73  PHE73       0.0534
     53  CG        -9.2300  -21.1420   36.4900 C.ar   73  PHE73      -0.0203
     54  CD1       -7.8950  -21.4930   36.3040 C.ar   73  PHE73      -0.0042
     55  CD2      -10.2110  -21.8230   35.7770 C.ar   73  PHE73      -0.0042
     56  CE1       -7.5380  -22.5070   35.4130 C.ar   73  PHE73      -0.0003
     57  CE2       -9.8710  -22.8370   34.8840 C.ar   73  PHE73      -0.0003
     58  CZ        -8.5310  -23.1800   34.6990 C.ar   73  PHE73      -0.0000
     59  N        -13.8570  -16.2280   39.4830 N.3    78  PHE78      -0.1241
     60  CA       -13.5990  -14.8730   39.0030 C.3    78  PHE78       0.1605
     61  C        -15.0040  -14.2920   38.7920 C.2    78  PHE78       0.2264
     62  O        -15.6340  -14.5070   37.7500 O.2    78  PHE78      -0.2867
     63  CB       -12.8020  -14.9880   37.6900 C.3    78  PHE78       0.0534
     64  CG       -12.3530  -13.6760   37.0940 C.ar   78  PHE78      -0.0203
     65  CD1      -12.6620  -12.4510   37.6850 C.ar   78  PHE78      -0.0042
     66  CD2      -11.6400  -13.6770   35.8950 C.ar   78  PHE78      -0.0042
     67  CE1      -12.2720  -11.2510   37.0860 C.ar   78  PHE78      -0.0003
     68  CE2      -11.2470  -12.4840   35.2900 C.ar   78  PHE78      -0.0003
     69  CZ       -11.5650  -11.2670   35.8880 C.ar   78  PHE78      -0.0000
     70  N        -16.2810  -12.6110   35.4690 N.3    81  CYS81      -0.1235
     71  CA       -15.8770  -13.3160   34.2630 C.3    81  CYS81       0.1677
     72  C        -17.0100  -14.1190   33.6270 C.2    81  CYS81       0.2270
     73  O        -17.6810  -14.9040   34.2910 O.2    81  CYS81      -0.2867
     74  CB       -14.6970  -14.2320   34.5750 C.3    81  CYS81       0.0956
     75  SG       -14.0530  -15.0830   33.1240 S.3    81  CYS81      -0.0801
     76  N        -17.9890  -15.8600   29.5360 N.3    83  LYS83      -0.1245
     77  CA       -17.7040  -16.0780   28.1220 C.3    83  LYS83       0.1561
     78  C        -18.8110  -17.0000   27.6270 C.2    83  LYS83       0.2260
     79  O        -18.5800  -18.1830   27.3830 O.2    83  LYS83      -0.2867
     80  CB       -16.3460  -16.7420   27.9540 C.3    83  LYS83       0.0271
     81  CG       -15.2280  -15.7700   28.1810 C.3    83  LYS83       0.0035
     82  CD       -14.0590  -16.5780   27.6830 C.3    83  LYS83       0.0206
     83  CE       -12.8170  -16.3950   28.4890 C.3    83  LYS83       0.1093
     84  NZ       -12.3930  -15.0150   28.5750 N.3    83  LYS83      -0.1314
     85  N        -12.8680  -13.8010   43.5920 N.3   103  LYS103     -0.1245
     86  CA       -11.8620  -12.9800   42.9310 C.3   103  LYS103      0.1561
     87  C        -12.5640  -11.9380   42.0670 C.2   103  LYS103      0.2260
     88  O        -13.5530  -12.2360   41.4070 O.2   103  LYS103     -0.2867
     89  CB       -10.9490  -13.8270   42.0340 C.3   103  LYS103      0.0271
     90  CG       -10.1770  -12.9820   41.0190 C.3   103  LYS103      0.0035
     91  CD        -9.3460  -13.8310   40.0680 C.3   103  LYS103      0.0206
     92  CE        -8.9210  -13.0090   38.8560 C.3   103  LYS103      0.1093
     93  NZ        -8.0120  -13.7950   37.9780 N.3   103  LYS103     -0.1314
     94  N        -11.7040   -7.8620   39.8890 N.3   105  HIS105     -0.1241
     95  CA       -10.7870   -6.7620   39.5640 C.3   105  HIS105      0.1621
     96  C        -11.5730   -5.4510   39.5410 C.2   105  HIS105      0.2264
     97  O        -11.0700   -4.4180   39.0930 O.2   105  HIS105     -0.2867
     98  CB       -10.1530   -6.9330   38.1820 C.3   105  HIS105      0.0745
     99  CG        -9.2550   -8.1210   38.0620 C.ar  105  HIS105      0.0817
    100  ND1       -8.1910   -8.3420   38.9090 N.ar  105  HIS105     -0.2268
    101  CD2       -9.2320   -9.1270   37.1570 C.ar  105  HIS105      0.1154
    102  CE1       -7.5470   -9.4320   38.5280 C.ar  105  HIS105      0.1986
    103  NE2       -8.1580   -9.9270   37.4660 N.ar  105  HIS105     -0.2212
    104  N          0.7540   -6.6190   32.4450 N.3   136  PHE136     -0.1241
    105  CA        -0.4880   -6.5340   31.6730 C.3   136  PHE136      0.1605
    106  C         -0.2000   -6.5960   30.1690 C.2   136  PHE136      0.2264
    107  O         -0.9680   -7.1760   29.4090 O.2   136  PHE136     -0.2867
    108  CB        -1.2230   -5.2300   32.0290 C.3   136  PHE136      0.0534
    109  CG        -2.7360   -5.3120   31.9500 C.ar  136  PHE136     -0.0203
    110  CD1       -3.5150   -4.2130   32.3240 C.ar  136  PHE136     -0.0042
    111  CD2       -3.3840   -6.4790   31.5420 C.ar  136  PHE136     -0.0042
    112  CE1       -4.9120   -4.2720   32.2970 C.ar  136  PHE136     -0.0003
    113  CE2       -4.7860   -6.5520   31.5100 C.ar  136  PHE136     -0.0003
    114  CZ        -5.5510   -5.4460   31.8890 C.ar  136  PHE136     -0.0000
    115  N          0.2880  -10.0540   29.2060 N.3   139  PHE139     -0.1241
    116  CA        -1.0030  -10.7090   29.3710 C.3   139  PHE139      0.1605
    117  C         -1.8080  -10.4850   28.0840 C.2   139  PHE139      0.2264
    118  O         -2.4260  -11.4130   27.5510 O.2   139  PHE139     -0.2867
    119  CB        -1.7460  -10.1020   30.5610 C.3   139  PHE139      0.0534
    120  CG        -2.9200  -10.9180   31.0260 C.ar  139  PHE139     -0.0203
    121  CD1       -2.7230  -12.1370   31.6680 C.ar  139  PHE139     -0.0042
    122  CD2       -4.2200  -10.4580   30.8430 C.ar  139  PHE139     -0.0042
    123  CE1       -3.8120  -12.8880   32.1310 C.ar  139  PHE139     -0.0003
    124  CE2       -5.3130  -11.2000   31.3000 C.ar  139  PHE139     -0.0003
    125  CZ        -5.1030  -12.4150   31.9460 C.ar  139  PHE139     -0.0000
    126  N         -3.1470  -13.8440   26.2430 N.3   143  VAL143     -0.1231
    127  CA        -4.5510  -14.1600   26.4550 C.3   143  VAL143      0.1692
    128  C         -5.5430  -13.7490   25.3750 C.2   143  VAL143      0.2592
    129  O         -5.5590  -12.6060   24.9330 O.2   143  VAL143     -0.2718
    130  CB        -5.0020  -13.5640   27.7960 C.3   143  VAL143      0.0266
    131  CG1       -6.4120  -13.9800   28.1040 C.3   143  VAL143      0.0020
    132  CG2       -4.0550  -14.0150   28.8970 C.3   143  VAL143      0.0020
    133  N         -6.3850  -14.6950   24.9720 N.am  144  ALA144     -0.1966
    134  CA        -7.3970  -14.4340   23.9550 C.3   144  ALA144      0.1728
    135  C         -8.3860  -13.4050   24.4920 C.2   144  ALA144      0.2616
    136  O         -8.5980  -13.3080   25.7020 O.2   144  ALA144     -0.2715
    137  CB        -8.1260  -15.7330   23.5890 C.3   144  ALA144      0.0334
    138  N         -8.9810  -12.6270   23.5940 N.am  145  GLY145     -0.1955
    139  CA        -9.9350  -11.6200   24.0230 C.3   145  GLY145      0.1869
    140  C         -9.3220  -10.2370   24.1250 C.2   145  GLY145      0.2309
    141  O        -10.0070   -9.2730   24.4660 O.2   145  GLY145     -0.2863
    142  N        -10.7930   -2.6230   32.9570 N.3   166  TYR166     -0.1241
    143  CA       -10.9340   -2.1660   34.3330 C.3   166  TYR166      0.1605
    144  C        -10.5680   -0.7010   34.5470 C.2   166  TYR166      0.2264
    145  O        -10.5270   -0.2190   35.6730 O.2   166  TYR166     -0.2867
    146  CB       -10.1770   -3.0860   35.3020 C.3   166  TYR166      0.0534
    147  CG       -10.8090   -4.4570   35.3700 C.ar  166  TYR166     -0.0201
    148  CD1      -10.3240   -5.5130   34.5970 C.ar  166  TYR166     -0.0009
    149  CD2      -11.9440   -4.6790   36.1530 C.ar  166  TYR166     -0.0009
    150  CE1      -10.9490   -6.7620   34.6000 C.ar  166  TYR166      0.0417
    151  CE2      -12.5850   -5.9240   36.1600 C.ar  166  TYR166      0.0417
    152  CZ       -12.0790   -6.9580   35.3840 C.ar  166  TYR166      0.1957
    153  OH       -12.6960   -8.1880   35.4020 O.3   166  TYR166     -0.2866
    154  N         -2.2280  -21.8670   35.6390 N.3   237  TYR237     -0.1241
    155  CA        -3.1470  -21.7640   34.5060 C.3   237  TYR237      0.1605
    156  C         -2.8060  -22.5920   33.2660 C.2   237  TYR237      0.2264
    157  O         -3.4270  -22.4110   32.2200 O.2   237  TYR237     -0.2867
    158  CB        -3.2990  -20.2890   34.0950 C.3   237  TYR237      0.0534
    159  CG        -4.1220  -19.4560   35.0560 C.ar  237  TYR237     -0.0201
    160  CD1       -3.6030  -19.0420   36.2870 C.ar  237  TYR237     -0.0009
    161  CD2       -5.4410  -19.1160   34.7520 C.ar  237  TYR237     -0.0009
    162  CE1       -4.3840  -18.3120   37.1910 C.ar  237  TYR237      0.0417
    163  CE2       -6.2280  -18.3910   35.6480 C.ar  237  TYR237      0.0417
    164  CZ        -5.6960  -17.9950   36.8640 C.ar  237  TYR237      0.1957
    165  OH        -6.4930  -17.3090   37.7580 O.3   237  TYR237     -0.2866
    166  N         -6.7670  -20.2010   24.5040 N.3   244  ILE244     -0.1231
    167  CA        -7.2820  -19.3660   25.5790 C.3   244  ILE244      0.1692
    168  C         -6.1290  -18.5980   26.2190 C.2   244  ILE244      0.2591
    169  O         -6.1770  -17.3750   26.3470 O.2   244  ILE244     -0.2718
    170  CB        -7.9930  -20.2400   26.6220 C.3   244  ILE244      0.0266
    171  CG1       -9.2120  -20.9050   25.9760 C.3   244  ILE244      0.0019
    172  CG2       -8.3970  -19.4110   27.8180 C.3   244  ILE244      0.0020
    173  CD1      -10.0120  -21.7770   26.9170 C.3   244  ILE244      0.0001
    174  N         -5.0990  -19.3280   26.6290 N.am  245  MET245     -0.1979
    175  CA        -3.9090  -18.7210   27.2090 C.3   245  MET245      0.1605
    176  C         -2.7000  -19.3840   26.5650 C.2   245  MET245      0.2287
    177  O         -2.3440  -20.5080   26.9110 O.2   245  MET245     -0.2864
    178  CB        -3.8670  -18.9110   28.7280 C.3   245  MET245      0.0413
    179  CG        -4.7550  -17.9500   29.4970 C.3   245  MET245      0.0598
    180  SD        -4.2390  -17.7490   31.2260 S.3   245  MET245     -0.1393
    181  CE        -5.6560  -16.9020   31.8940 C.3   245  MET245      0.0692
    182  N          2.0440  -17.4350   32.4220 N.3   252  PHE252     -0.1241
    183  CA         1.2690  -16.6640   33.3870 C.3   252  PHE252      0.1605
    184  C          2.2230  -16.2870   34.5240 C.2   252  PHE252      0.2264
    185  O          2.2510  -15.1420   34.9780 O.2   252  PHE252     -0.2867
    186  CB         0.1030  -17.4940   33.9230 C.3   252  PHE252      0.0534
    187  CG        -0.8820  -16.6980   34.7240 C.ar  252  PHE252     -0.0203
    188  CD1       -2.0330  -16.1890   34.1330 C.ar  252  PHE252     -0.0042
    189  CD2       -0.6460  -16.4350   36.0690 C.ar  252  PHE252     -0.0042
    190  CE1       -2.9370  -15.4300   34.8700 C.ar  252  PHE252     -0.0003
    191  CE2       -1.5410  -15.6770   36.8130 C.ar  252  PHE252     -0.0003
    192  CZ        -2.6890  -15.1730   36.2170 C.ar  252  PHE252     -0.0000
@<TRIPOS>BOND
     1   137   134    1
     2   138   139    1
     3   138   135   am
     4   134   135    1
     5   134   133    1
     6   139   140    1
     7   140   141    2
     8   135   136    2
     9   166   167    1
    10    19    18   ar
    11   129   128    2
    12   133   128   am
    13    20    18   ar
    14   128   127    1
    15    18    17    1
    16   167   168    1
    17   167   170    1
    18   171   170    1
    19   171   173    1
    20   168   169    2
    21   168   174   am
    22   126   127    1
    23    13    14    1
    24   127   130    1
    25   176   177    2
    26   176   175    1
    27   170   172    1
    28   174   175    1
    29    17    14    1
    30    14    15    1
    31   175   178    1
    32    79    78    2
    33   118   117    2
    34    78    77    1
    35    82    81    1
    36    82    83    1
    37   130   131    1
    38   130   132    1
    39     3     2    1
    40     3     4    2
    41    80    77    1
    42    80    81    1
    43   117   116    1
    44    77    76    1
    45    15    16    2
    46    15    21   am
    47     2     5    1
    48     2     1    1
    49     8    10   ar
    50     8     6   ar
    51    83    84    1
    52   178   179    1
    53    10    11   ar
    54     5     6    1
    55    21    22    1
    56   115   116    1
    57     6     7   ar
    58   116   119    1
    59   107   106    2
    60   179   180    1
    61    11    12    1
    62    11     9   ar
    63   106   105    1
    64    22    23    1
    65    22    25    1
    66    23    24    2
    67   119   120    1
    68     7     9   ar
    69   122   120   ar
    70   122   124   ar
    71    28    30   ar
    72    28    26   ar
    73   120   121   ar
    74    30    31   ar
    75   180   181    1
    76   124   125   ar
    77    25    26    1
    78   113   111   ar
    79   113   114   ar
    80   111   109   ar
    81    26    27   ar
    82   121   123   ar
    83   105   108    1
    84   105   104    1
    85   114   112   ar
    86   125   123   ar
    87   109   108    1
    88   109   110   ar
    89    31    29   ar
    90   157   156    2
    91   112   110   ar
    92   182   183    1
    93    27    29   ar
    94   142   143    1
    95    75    74    1
    96   156   155    1
    97   183   186    1
    98   183   184    1
    99    72    71    1
   100    72    73    2
   101   186   187    1
   102   158   155    1
   103   158   159    1
   104   188   187   ar
   105   188   190   ar
   106    71    74    1
   107    71    70    1
   108   143   144    1
   109   143   146    1
   110   155   154    1
   111    45    44    1
   112    45    46    1
   113   184   185    2
   114   144   145    2
   115    44    43    1
   116   148   150   ar
   117   148   147   ar
   118   150   152   ar
   119    46    47    1
   120    58    57   ar
   121    58    56   ar
   122   187   189   ar
   123   161   159   ar
   124   161   163   ar
   125   190   192   ar
   126    57    55   ar
   127   159   160   ar
   128    68    69   ar
   129    68    66   ar
   130   146   147    1
   131   147   149   ar
   132   152   153    1
   133   152   151   ar
   134    36    37    1
   135    36    33    1
   136    56    54   ar
   137    37    38    1
   138   163   164   ar
   139    55    53   ar
   140    43    40    1
   141    69    67   ar
   142    66    64   ar
   143   189   191   ar
   144   149   151   ar
   145   192   191   ar
   146   160   162   ar
   147    54    53   ar
   148    53    52    1
   149    38    32    1
   150    33    34    1
   151    33    32    1
   152   164   162   ar
   153   164   165    1
   154    35    34    2
   155    34    39   am
   156    67    65   ar
   157    39    40    1
   158    64    65   ar
   159    64    63    1
   160    40    41    1
   161   101   103   ar
   162   101    99   ar
   163    52    49    1
   164   103   102   ar
   165    63    60    1
   166    62    61    2
   167    93    92    1
   168    99    98    1
   169    99   100   ar
   170    98    95    1
   171    42    41    2
   172   102   100   ar
   173    51    50    2
   174    61    60    1
   175    92    91    1
   176    49    50    1
   177    49    48    1
   178    60    59    1
   179    97    96    2
   180    96    95    1
   181    95    94    1
   182    91    90    1
   183    90    89    1
   184    88    87    2
   185    89    86    1
   186    87    86    1
   187    86    85    1
