@<TRIPOS>MOLECULE
tmp/1g3rA00.pdb
 168 162 0 0 0
SMALL
GASTEIGER

@<TRIPOS>ATOM
      1  N         78.3350  -11.3290  123.5010 N.3    12  GLY12      -0.1210
      2  CA        79.6900  -11.6450  123.9180 C.3    12  GLY12       0.1956
      3  C         80.6390  -10.6660  123.2480 C.2    12  GLY12       0.2612
      4  O         80.2700  -10.0380  122.2470 O.2    12  GLY12      -0.2717
      5  N         81.8520  -10.5290  123.7830 N.am   13  GLY13      -0.1942
      6  CA        82.8100   -9.5940  123.2110 C.3    13  GLY13       0.2014
      7  C         82.3010   -8.1830  123.4270 C.2    13  GLY13       0.2640
      8  O         82.8020   -7.2090  122.8550 O.2    13  GLY13      -0.2714
      9  N         81.2890   -8.0940  124.2800 N.am   14  THR14      -0.1936
     10  CA        80.6390   -6.8400  124.6160 C.3    14  THR14       0.2028
     11  C         81.3550   -6.0620  125.7250 C.2    14  THR14       0.2643
     12  O         81.2200   -4.8380  125.8140 O.2    14  THR14      -0.2714
     13  CB        79.1740   -7.1050  125.0380 C.3    14  THR14       0.1808
     14  OG1       79.1460   -8.1330  126.0400 O.3    14  THR14      -0.2208
     15  CG2       78.3390   -7.5590  123.8380 C.3    14  THR14       0.0379
     16  N         82.1070   -6.7650  126.5680 N.am   15  GLY15      -0.1939
     17  CA        82.8170   -6.0940  127.6410 C.3    15  GLY15       0.2014
     18  C         82.2930   -6.3340  129.0500 C.2    15  GLY15       0.2639
     19  O         82.4220   -5.4720  129.9240 O.2    15  GLY15      -0.2714
     20  N         81.7030   -7.5040  129.2760 N.am   16  LYS16      -0.1963
     21  CA        81.1730   -7.8610  130.5860 C.3    16  LYS16       0.1728
     22  C         82.2570   -7.8550  131.6620 C.2    16  LYS16       0.2617
     23  O         82.0660   -7.3220  132.7550 O.2    16  LYS16      -0.2715
     24  CB        80.5380   -9.2490  130.5270 C.3    16  LYS16       0.0311
     25  CG        79.2710   -9.3280  129.6970 C.3    16  LYS16       0.0038
     26  CD        78.7270  -10.7520  129.6610 C.3    16  LYS16       0.0206
     27  CE        79.1880  -11.5130  128.4180 C.3    16  LYS16       0.1093
     28  NZ        80.6640  -11.7040  128.2990 N.3    16  LYS16      -0.1314
     29  N         83.3940   -8.4550  131.3470 N.am   17  THR17      -0.1937
     30  CA        84.4950   -8.5290  132.2890 C.3    17  THR17       0.2028
     31  C         85.0480   -7.1390  132.5930 C.2    17  THR17       0.2642
     32  O         85.4240   -6.8330  133.7290 O.2    17  THR17      -0.2714
     33  CB        85.6110   -9.4220  131.7320 C.3    17  THR17       0.1808
     34  OG1       85.0640  -10.7060  131.4130 O.3    17  THR17      -0.2208
     35  CG2       86.7270   -9.5980  132.7570 C.3    17  THR17       0.0379
     36  N         85.0900   -6.2980  131.5680 N.am   18  THR18      -0.1950
     37  CA        85.5860   -4.9400  131.7230 C.3    18  THR18       0.1897
     38  C         84.6670   -4.1860  132.6700 C.2    18  THR18       0.2313
     39  O         85.1220   -3.5200  133.6120 O.2    18  THR18      -0.2863
     40  CB        85.6200   -4.2200  130.3750 C.3    18  THR18       0.1794
     41  OG1       86.5360   -4.8990  129.5070 O.3    18  THR18      -0.2208
     42  CG2       86.0560   -2.7690  130.5500 C.3    18  THR18       0.0378
     43  N         82.3270  -17.0820  134.8200 N.3    40  ASP40      -0.1239
     44  CA        82.6190  -17.7190  133.5480 C.3    40  ASP40       0.1674
     45  C         83.5070  -18.9160  133.8490 C.2    40  ASP40       0.2266
     46  O         84.7190  -18.8450  133.7110 O.2    40  ASP40      -0.2867
     47  CB        83.3580  -16.7530  132.6420 C.3    40  ASP40       0.1410
     48  CG        83.3380  -17.1890  131.2100 C.2    40  ASP40       0.3668
     49  OD1       83.5420  -18.3990  130.9590 O.co2  40  ASP40      -0.2456
     50  OD2       83.1220  -16.3170  130.3390 O.co2  40  ASP40      -0.2456
     51  N         85.9770  -20.1350  130.9270 N.3    43  MET43      -0.1245
     52  CA        87.1160  -19.2900  130.5920 C.3    43  MET43       0.1570
     53  C         87.3450  -18.2020  131.6270 C.2    43  MET43       0.2261
     54  O         87.0660  -17.0250  131.3820 O.2    43  MET43      -0.2867
     55  CB        86.9310  -18.6670  129.2110 C.3    43  MET43       0.0387
     56  CG        87.3650  -19.5850  128.0710 C.3    43  MET43       0.0595
     57  SD        89.1650  -19.9100  128.0300 S.3    43  MET43      -0.1393
     58  CE        89.7240  -18.6160  126.9320 C.3    43  MET43       0.0692
     59  N         88.7580  -15.3270  133.7770 N.3    45  ASN45      -0.1240
     60  CA        89.5220  -14.1930  133.2820 C.3    45  ASN45       0.1653
     61  C         89.4330  -13.0010  134.2330 C.2    45  ASN45       0.2266
     62  O         90.3610  -12.1940  134.3240 O.2    45  ASN45      -0.2867
     63  CB        88.9920  -13.8100  131.8960 C.3    45  ASN45       0.1155
     64  CG        89.7720  -12.6820  131.2550 C.2    45  ASN45       0.2627
     65  OD1       90.9780  -12.7880  131.0290 O.2    45  ASN45      -0.2716
     66  ND2       89.0830  -11.5890  130.9500 N.am   45  ASN45      -0.0877
     67  N         80.4680  -11.7900  137.0130 N.3   118  ASP118     -0.1225
     68  CA        80.8550  -11.6970  135.6100 C.3   118  ASP118      0.1805
     69  C         80.2490  -12.9460  134.9830 C.2   118  ASP118      0.2598
     70  O         80.6440  -14.0570  135.3160 O.2   118  ASP118     -0.2718
     71  CB        82.3820  -11.7080  135.4880 C.3   118  ASP118      0.1424
     72  CG        82.8660  -11.3580  134.0850 C.2   118  ASP118      0.3668
     73  OD1       82.0470  -10.8890  133.2640 O.co2 118  ASP118     -0.2456
     74  OD2       84.0720  -11.5410  133.8000 O.co2 118  ASP118     -0.2456
     75  N         79.2860  -12.7630  134.0850 N.am  119  CYS119     -0.1957
     76  CA        78.5990  -13.8870  133.4610 C.3   119  CYS119      0.1828
     77  C         78.9630  -14.2030  132.0170 C.2   119  CYS119      0.2467
     78  O         79.0470  -13.3110  131.1690 O.2   119  CYS119     -0.2730
     79  CB        77.0850  -13.6710  133.5240 C.3   119  CYS119      0.0996
     80  SG        76.3720  -13.6500  135.1770 S.3   119  CYS119     -0.0797
     81  N         79.1690  -15.4950  131.7110 N.am  120  PRO120     -0.2715
     82  CA        79.5090  -15.8770  130.3390 C.3   120  PRO120      0.1536
     83  C         78.2760  -15.6900  129.4480 C.2   120  PRO120      0.2598
     84  O         77.1440  -15.9490  129.8650 O.2   120  PRO120     -0.2715
     85  CB        79.9090  -17.3380  130.4860 C.3   120  PRO120      0.0310
     86  CG        79.0340  -17.8040  131.5880 C.3   120  PRO120      0.0237
     87  CD        79.1320  -16.6770  132.5890 C.3   120  PRO120      0.0939
     88  N         78.4920  -15.2270  128.2250 N.am  121  ALA121     -0.1978
     89  CA        77.3870  -15.0080  127.2970 C.3   121  ALA121      0.1597
     90  C         76.6790  -16.3110  126.9080 C.2   121  ALA121      0.2287
     91  O         77.2940  -17.3850  126.8590 O.2   121  ALA121     -0.2864
     92  CB        77.9010  -14.3040  126.0430 C.3   121  ALA121      0.0319
     93  N         78.1450   -0.0210  125.7140 N.3   171  ASN171     -0.1225
     94  CA        79.5940   -0.0630  125.6860 C.3   171  ASN171      0.1785
     95  C         80.1640    0.0200  124.2850 C.2   171  ASN171      0.2597
     96  O         79.5230   -0.3980  123.3220 O.2   171  ASN171     -0.2718
     97  CB        80.0730   -1.3630  126.3280 C.3   171  ASN171      0.1169
     98  CG        81.5740   -1.4040  126.5150 C.2   171  ASN171      0.2627
     99  OD1       82.1850   -2.4700  126.4810 O.2   171  ASN171     -0.2716
    100  ND2       82.1750   -0.2420  126.7280 N.am  171  ASN171     -0.0877
    101  N         81.3770    0.5590  124.1820 N.am  172  ARG172     -0.1979
    102  CA        82.0700    0.6550  122.9060 C.3   172  ARG172      0.1597
    103  C         81.5580    1.7350  121.9580 C.2   172  ARG172      0.2287
    104  O         82.0620    1.8680  120.8450 O.2   172  ARG172     -0.2864
    105  CB        82.0060   -0.7010  122.2030 C.3   172  ARG172      0.0334
    106  CG        82.6650   -1.8450  122.9540 C.3   172  ARG172      0.0492
    107  CD        84.1540   -1.8260  122.7100 C.3   172  ARG172      0.2205
    108  NE        84.7190   -3.1650  122.5880 N.pl3 172  ARG172     -0.0865
    109  CZ        85.8540   -3.4340  121.9500 C.cat 172  ARG172      0.5346
    110  NH1       86.5430   -2.4550  121.3730 N.pl3 172  ARG172      0.1354
    111  NH2       86.3030   -4.6800  121.8870 N.pl3 172  ARG172      0.1354
    112  N         82.4300    4.7550  126.1960 N.3   198  PRO198     -0.2102
    113  CA        83.0710    4.9950  124.9000 C.3   198  PRO198      0.1504
    114  C         84.1460    3.9870  124.5320 C.2   198  PRO198      0.2576
    115  O         84.6750    3.2800  125.3840 O.2   198  PRO198     -0.2718
    116  CB        83.6500    6.3940  125.0650 C.3   198  PRO198      0.0282
    117  CG        84.0410    6.4020  126.5080 C.3   198  PRO198      0.0208
    118  CD        82.8170    5.8000  127.1610 C.3   198  PRO198      0.0893
    119  N         84.4500    3.9180  123.2460 N.am  199  GLU199     -0.1966
    120  CA        85.4940    3.0290  122.7610 C.3   199  GLU199      0.1733
    121  C         86.7720    3.7820  123.1140 C.2   199  GLU199      0.2616
    122  O         87.1680    4.7100  122.4110 O.2   199  GLU199     -0.2715
    123  CB        85.3700    2.8610  121.2470 C.3   199  GLU199      0.0429
    124  CG        86.4960    2.0810  120.5820 C.3   199  GLU199      0.1163
    125  CD        86.4980    0.6200  120.9640 C.2   199  GLU199      0.3649
    126  OE1       85.4000    0.0730  121.2030 O.co2 199  GLU199     -0.2457
    127  OE2       87.5930    0.0150  121.0090 O.co2 199  GLU199     -0.2457
    128  N         87.3990    3.4010  124.2210 N.am  200  ASP200     -0.1958
    129  CA        88.6130    4.0710  124.6690 C.3   200  ASP200      0.1825
    130  C         89.7740    3.0930  124.8400 C.2   200  ASP200      0.2464
    131  O         89.7020    2.1770  125.6560 O.2   200  ASP200     -0.2730
    132  CB        88.3340    4.7830  125.9940 C.3   200  ASP200      0.1450
    133  CG        89.4450    5.7210  126.4000 C.2   200  ASP200      0.3671
    134  OD1       90.5910    5.5270  125.9440 O.co2 200  ASP200     -0.2456
    135  OD2       89.1710    6.6460  127.1900 O.co2 200  ASP200     -0.2456
    136  N         90.8600    3.2750  124.0650 N.am  201  PRO201     -0.2727
    137  CA        92.0430    2.4090  124.1350 C.3   201  PRO201      0.1402
    138  C         92.5430    2.2510  125.5740 C.2   201  PRO201      0.2269
    139  O         93.1490    1.2330  125.9230 O.2   201  PRO201     -0.2865
    140  CB        93.0530    3.1380  123.2580 C.3   201  PRO201      0.0296
    141  CG        92.1970    3.7620  122.2270 C.3   201  PRO201      0.0237
    142  CD        91.0410    4.3150  123.0370 C.3   201  PRO201      0.0939
    143  N         90.8540    1.7040  128.1630 N.3   203  ILE203     -0.1231
    144  CA        90.1760    0.5820  128.7930 C.3   203  ILE203      0.1692
    145  C         90.9210   -0.7090  128.4820 C.2   203  ILE203      0.2591
    146  O         91.0240   -1.5920  129.3380 O.2   203  ILE203     -0.2718
    147  CB        88.7130    0.4890  128.3210 C.3   203  ILE203      0.0266
    148  CG1       87.9250    1.6450  128.9290 C.3   203  ILE203      0.0019
    149  CG2       88.1060   -0.8340  128.7200 C.3   203  ILE203      0.0020
    150  CD1       86.4610    1.6250  128.6250 C.3   203  ILE203      0.0001
    151  N         91.4470   -0.8100  127.2600 N.am  204  ARG204     -0.1980
    152  CA        92.2070   -1.9870  126.8480 C.3   204  ARG204      0.1597
    153  C         93.5680   -1.9780  127.5390 C.2   204  ARG204      0.2287
    154  O         94.1020   -3.0280  127.8930 O.2   204  ARG204     -0.2864
    155  CB        92.3970   -1.9990  125.3300 C.3   204  ARG204      0.0334
    156  CG        93.2960   -3.1310  124.8310 C.3   204  ARG204      0.0492
    157  CD        92.5730   -4.0360  123.8210 C.3   204  ARG204      0.2205
    158  NE        93.4230   -5.1200  123.3160 N.pl3 204  ARG204     -0.0865
    159  CZ        93.8890   -6.1220  124.0610 C.cat 204  ARG204      0.5346
    160  NH1       94.6570   -7.0620  123.5190 N.pl3 204  ARG204      0.1354
    161  NH2       93.5810   -6.1920  125.3540 N.pl3 204  ARG204      0.1354
    162  N         93.1090   -3.3650  130.9030 N.3   207  THR207     -0.1218
    163  CA        92.9020   -4.8080  130.8120 C.3   207  THR207      0.1862
    164  C         94.2180   -5.5710  130.8350 C.2   207  THR207      0.2287
    165  O         94.4180   -6.4470  131.6670 O.2   207  THR207     -0.2866
    166  CB        92.1670   -5.1880  129.5170 C.3   207  THR207      0.1770
    167  OG1       90.8520   -4.6310  129.5330 O.3   207  THR207     -0.2211
    168  CG2       92.0670   -6.6970  129.3830 C.3   207  THR207      0.0375
@<TRIPOS>BOND
     1   124   125    1
     2   124   123    1
     3   104   103    2
     4   125   127   ar
     5   125   126   ar
     6   123   120    1
     7   110   109    1
     8   111   109    1
     9   109   108    2
    10   103   102    1
    11   105   102    1
    12   105   106    1
    13   141   142    1
    14   141   140    1
    15     4     3    2
    16   122   121    2
    17   108   107    1
    18   107   106    1
    19   120   121    1
    20   120   119    1
    21     8     7    2
    22   102   101    1
    23   142   136    1
    24   121   128   am
    25     6     7    1
    26     6     5    1
    27   119   114   am
    28     3     5   am
    29     3     2    1
    30   140   137    1
    31   158   157    1
    32   158   159    2
    33    96    95    2
    34     7     9   am
    35     1     2    1
    36   160   159    1
    37   157   156    1
    38    15    13    1
    39   159   161    1
    40   136   137    1
    41   136   130   am
    42   137   138    1
    43   101    95   am
    44   128   129    1
    45     9    10    1
    46    95    94    1
    47   114   113    1
    48   114   115    2
    49    10    13    1
    50    10    11    1
    51   129   130    1
    52   129   132    1
    53   156   155    1
    54   130   131    2
    55   113   116    1
    56   113   112    1
    57    13    14    1
    58   116   117    1
    59   155   152    1
    60   138   139    2
    61    94    93    1
    62    94    97    1
    63    11    12    2
    64    11    16   am
    65   134   133   ar
    66   132   133    1
    67    92    89    1
    68   112   118    1
    69    97    98    1
    70   133   135   ar
    71    99    98    2
    72   117   118    1
    73    98   100   am
    74    16    17    1
    75   152   151    1
    76   152   153    1
    77    91    90    2
    78    90    89    1
    79    58    57    1
    80   151   145   am
    81    89    88    1
    82   153   154    2
    83    17    18    1
    84    57    56    1
    85    56    55    1
    86   143   144    1
    87    88    83   am
    88    28    27    1
    89   147   149    1
    90   147   144    1
    91   147   148    1
    92    27    26    1
    93   145   144    1
    94   145   146    2
    95   150   148    1
    96    18    20   am
    97    18    19    2
    98    55    52    1
    99    20    21    1
   100   168   166    1
   101    83    84    2
   102    83    82    1
   103    41    40    1
   104   166   167    1
   105   166   163    1
   106    26    25    1
   107    25    24    1
   108    82    85    1
   109    82    81    1
   110    50    48   ar
   111    40    42    1
   112    40    37    1
   113    85    86    1
   114    24    21    1
   115    21    22    1
   116    52    51    1
   117    52    53    1
   118   163   164    1
   119   163   162    1
   120   164   165    2
   121    66    64   am
   122    49    48   ar
   123    65    64    2
   124    78    77    2
   125    48    47    1
   126    64    63    1
   127    29    22   am
   128    29    30    1
   129    54    53    2
   130    34    33    1
   131    36    37    1
   132    36    31   am
   133    86    87    1
   134    22    23    2
   135    81    77   am
   136    81    87    1
   137    37    38    1
   138    33    30    1
   139    33    35    1
   140    63    60    1
   141    77    76    1
   142    30    31    1
   143    31    32    2
   144    47    44    1
   145    38    39    2
   146    73    72   ar
   147    60    59    1
   148    60    61    1
   149    76    79    1
   150    76    75    1
   151    79    80    1
   152    44    45    1
   153    44    43    1
   154    46    45    2
   155    74    72   ar
   156    75    69   am
   157    72    71    1
   158    61    62    2
   159    69    70    2
   160    69    68    1
   161    71    68    1
   162    68    67    1
