@<TRIPOS>MOLECULE
tmp/1g3uA00.pdb
 168 161 0 0 0
SMALL
GASTEIGER

@<TRIPOS>ATOM
      1  N         21.5400   16.6900   13.6160 N.3     9  ASP9       -0.1239
      2  CA        21.9890   17.6680   12.6270 C.3     9  ASP9        0.1674
      3  C         21.7830   19.0780   13.1520 C.2     9  ASP9        0.2266
      4  O         20.7250   19.3840   13.6800 O.2     9  ASP9       -0.2867
      5  CB        21.2550   17.4380   11.2960 C.3     9  ASP9        0.1410
      6  CG        21.7410   16.1010   10.7270 C.2     9  ASP9        0.3668
      7  OD1       22.9160   16.0420   10.3190 O.co2   9  ASP9       -0.2456
      8  OD2       20.9720   15.1290   10.7140 O.co2   9  ASP9       -0.2456
      9  N         28.1530   20.3450   16.4850 N.3    13  LYS13      -0.1245
     10  CA        29.2710   19.4220   16.6300 C.3    13  LYS13       0.1561
     11  C         30.5750   19.9230   16.0400 C.2    13  LYS13       0.2260
     12  O         31.6170   19.8320   16.7020 O.2    13  LYS13      -0.2867
     13  CB        28.9570   18.0560   15.9880 C.3    13  LYS13       0.0271
     14  CG        27.7730   17.3530   16.6250 C.3    13  LYS13       0.0035
     15  CD        27.5590   15.9620   16.0620 C.3    13  LYS13       0.0206
     16  CE        27.1150   15.9410   14.6170 C.3    13  LYS13       0.1093
     17  NZ        25.8310   16.6770   14.4110 N.3    13  LYS13      -0.1314
     18  N         33.1090   12.0430    9.8780 N.3    36  PHE36      -0.1228
     19  CA        32.3020   11.1400    9.0470 C.3    36  PHE36       0.1721
     20  C         30.9390   11.7670    8.8210 C.2    36  PHE36       0.2437
     21  O         30.3700   12.3790    9.7280 O.2    36  PHE36      -0.2733
     22  CB        32.1690    9.7660    9.7370 C.3    36  PHE36       0.0547
     23  CG        33.5100    9.0820    9.8670 C.ar   36  PHE36      -0.0202
     24  CD1       34.0710    8.4380    8.7820 C.ar   36  PHE36      -0.0042
     25  CD2       34.2000    9.0930   11.0730 C.ar   36  PHE36      -0.0042
     26  CE1       35.2960    7.8080    8.8790 C.ar   36  PHE36      -0.0003
     27  CE2       35.4280    8.4640   11.1750 C.ar   36  PHE36      -0.0003
     28  CZ        35.9780    7.8220   10.0840 C.ar   36  PHE36      -0.0000
     29  N         30.3830   11.6170    7.6200 N.am   37  PRO37      -0.2729
     30  CA        30.9460   10.8140    6.5630 C.3    37  PRO37       0.1401
     31  C         32.1180   11.5110    5.8890 C.2    37  PRO37       0.2269
     32  O         32.1440   12.7410    5.8950 O.2    37  PRO37      -0.2865
     33  CB        29.8060   10.6360    5.5620 C.3    37  PRO37       0.0296
     34  CG        28.5860   11.2220    6.1700 C.3    37  PRO37       0.0237
     35  CD        29.0420   12.1460    7.2590 C.3    37  PRO37       0.0939
     36  N         33.1310   12.8950    3.0990 N.3    39  TYR39      -0.1241
     37  CA        32.7600   13.4100    1.7800 C.3    39  TYR39       0.1605
     38  C         34.0150   13.6980    0.9700 C.2    39  TYR39       0.2264
     39  O         34.9410   14.3100    1.4970 O.2    39  TYR39      -0.2867
     40  CB        31.9250   14.6760    1.9280 C.3    39  TYR39       0.0534
     41  CG        30.6680   14.4990    2.7500 C.ar   39  TYR39      -0.0201
     42  CD1       29.7050   13.5630    2.3920 C.ar   39  TYR39      -0.0009
     43  CD2       30.4450   15.2760    3.8770 C.ar   39  TYR39      -0.0009
     44  CE1       28.5550   13.4020    3.1440 C.ar   39  TYR39       0.0417
     45  CE2       29.3010   15.1250    4.6350 C.ar   39  TYR39       0.0417
     46  CZ        28.3590   14.1880    4.2610 C.ar   39  TYR39       0.1957
     47  OH        27.2180   14.0330    5.0150 O.3    39  TYR39      -0.2866
     48  N         20.8130   11.0240   -0.1350 N.3    52  LEU52      -0.1245
     49  CA        20.0620   11.9140    0.7470 C.3    52  LEU52       0.1561
     50  C         19.6470   13.2320    0.1130 C.2    52  LEU52       0.2260
     51  O         18.8100   13.9740    0.6480 O.2    52  LEU52      -0.2867
     52  CB        20.8760   12.1890    2.0210 C.3    52  LEU52       0.0270
     53  CG        21.0610   11.0000    2.9690 C.3    52  LEU52       0.0019
     54  CD1       21.7560   11.4400    4.2510 C.3    52  LEU52       0.0001
     55  CD2       19.7350   10.3280    3.2950 C.3    52  LEU52       0.0001
     56  N         27.4850    4.1210    5.2620 N.3    70  PHE70      -0.1241
     57  CA        28.2610    4.8220    6.2850 C.3    70  PHE70       0.1605
     58  C         29.2590    3.9020    6.9750 C.2    70  PHE70       0.2264
     59  O         30.3610    4.3340    7.3360 O.2    70  PHE70      -0.2867
     60  CB        27.3640    5.5230    7.3190 C.3    70  PHE70       0.0534
     61  CG        26.5090    6.6120    6.7300 C.ar   70  PHE70      -0.0203
     62  CD1       27.0850    7.6620    6.0380 C.ar   70  PHE70      -0.0042
     63  CD2       25.1290    6.5870    6.8630 C.ar   70  PHE70      -0.0042
     64  CE1       26.3160    8.6720    5.4830 C.ar   70  PHE70      -0.0003
     65  CE2       24.3460    7.5900    6.3170 C.ar   70  PHE70      -0.0003
     66  CZ        24.9450    8.6330    5.6280 C.ar   70  PHE70      -0.0000
     67  N         33.4590    4.2130    6.9790 N.3    74  ARG74      -0.1245
     68  CA        34.3540    4.0170    8.1260 C.3    74  ARG74       0.1563
     69  C         35.3130    2.8520    7.9470 C.2    74  ARG74       0.2260
     70  O         36.4970    2.9740    8.2950 O.2    74  ARG74      -0.2867
     71  CB        33.5440    3.8500    9.4140 C.3    74  ARG74       0.0307
     72  CG        33.0880    5.1810   10.0040 C.3    74  ARG74       0.0489
     73  CD        32.3710    4.9760   11.3310 C.3    74  ARG74       0.2205
     74  NE        31.0380    4.4090   11.1820 N.pl3  74  ARG74      -0.0865
     75  CZ        29.9540    5.0930   10.8310 C.cat  74  ARG74       0.5346
     76  NH1       30.0220    6.3980   10.5810 N.pl3  74  ARG74       0.1354
     77  NH2       28.7920    4.4620   10.7320 N.pl3  74  ARG74       0.1354
     78  N         34.2800   13.8080   14.3410 N.3    94  ASP94      -0.1225
     79  CA        32.9780   14.4830   14.2120 C.3    94  ASP94       0.1805
     80  C         31.9950   13.4870   13.6040 C.2    94  ASP94       0.2597
     81  O         31.9920   13.2730   12.3910 O.2    94  ASP94      -0.2718
     82  CB        33.1450   15.7260   13.3490 C.3    94  ASP94       0.1424
     83  CG        31.9090   16.5610   13.1480 C.2    94  ASP94       0.3668
     84  OD1       30.7650   16.1020   13.3490 O.co2  94  ASP94      -0.2456
     85  OD2       32.0820   17.7420   12.7650 O.co2  94  ASP94      -0.2456
     86  N         31.1930   12.8610   14.4410 N.am   95  ARG95      -0.1979
     87  CA        30.4100   11.6790   14.1630 C.3    95  ARG95       0.1597
     88  C         31.2480   10.4030   14.0670 C.2    95  ARG95       0.2287
     89  O         32.3560   10.3510   13.5380 O.2    95  ARG95      -0.2864
     90  CB        29.5580   11.7610   12.8930 C.3    95  ARG95       0.0334
     91  CG        28.4350   12.7850   12.9220 C.3    95  ARG95       0.0492
     92  CD        27.5220   12.5820   11.7040 C.3    95  ARG95       0.2205
     93  NE        26.3810   13.5020   11.7440 N.pl3  95  ARG95      -0.0865
     94  CZ        25.3950   13.4610   12.6260 C.cat  95  ARG95       0.5346
     95  NH1       25.3760   12.5360   13.5790 N.pl3  95  ARG95       0.1354
     96  NH2       24.3960   14.3370   12.5890 N.pl3  95  ARG95       0.1354
     97  N         26.3650    7.4910   15.5160 N.3    99  SER99      -0.1202
     98  CA        25.4730    8.1540   14.5670 C.3    99  SER99       0.2020
     99  C         24.6690    7.1230   13.7730 C.2    99  SER99       0.2618
    100  O         23.4780    7.3270   13.5640 O.2    99  SER99      -0.2717
    101  CB        26.2270    9.0300   13.5800 C.3    99  SER99       0.2103
    102  OG        26.8210   10.1720   14.1610 O.3    99  SER99      -0.2182
    103  N         25.3020    6.0430   13.3130 N.am  100  ASN100     -0.1974
    104  CA        24.5870    5.0080   12.5810 C.3   100  ASN100      0.1688
    105  C         23.5330    4.3120   13.4350 C.2   100  ASN100      0.2292
    106  O         22.4120    4.0940   12.9650 O.2   100  ASN100     -0.2864
    107  CB        25.5670    3.9760   12.0120 C.3   100  ASN100      0.1181
    108  CG        25.4160    3.7790   10.5170 C.2   100  ASN100      0.2629
    109  OD1       24.7020    4.5090    9.8270 O.2   100  ASN100     -0.2716
    110  ND2       26.1060    2.7720    9.9890 N.am  100  ASN100     -0.0877
    111  N         20.5070    7.1960   14.1750 N.3   103  TYR103     -0.1227
    112  CA        19.6880    7.4880   13.0060 C.3   103  TYR103      0.1736
    113  C         18.9670    6.2550   12.4840 C.2   103  TYR103      0.2596
    114  O         17.7820    6.3640   12.1270 O.2   103  TYR103     -0.2718
    115  CB        20.5280    8.1410   11.8970 C.3   103  TYR103      0.0548
    116  CG        20.7640    9.6150   12.1760 C.ar  103  TYR103     -0.0200
    117  CD1       21.8010   10.0240   13.0030 C.ar  103  TYR103     -0.0009
    118  CD2       19.9410   10.5830   11.6150 C.ar  103  TYR103     -0.0009
    119  CE1       22.0170   11.3680   13.2670 C.ar  103  TYR103      0.0417
    120  CE2       20.1490   11.9280   11.8700 C.ar  103  TYR103      0.0417
    121  CZ        21.1900   12.3100   12.6960 C.ar  103  TYR103      0.1957
    122  OH        21.4010   13.6470   12.9520 O.3   103  TYR103     -0.2866
    123  N         19.6390    5.1000   12.4840 N.am  104  SER104     -0.1952
    124  CA        18.9770    3.8950   11.9690 C.3   104  SER104      0.1924
    125  C         17.8040    3.5100   12.8620 C.2   104  SER104      0.2314
    126  O         16.6940    3.2870   12.3730 O.2   104  SER104     -0.2863
    127  CB        19.9410    2.7220   11.8320 C.3   104  SER104      0.2116
    128  OG        21.0160    3.0140   10.9530 O.3   104  SER104     -0.2180
    129  N         25.1320   23.9850    0.9200 N.3   160  ARG160     -0.1245
    130  CA        24.6930   23.2880    2.1220 C.3   160  ARG160      0.1563
    131  C         23.1760   23.1630    2.1950 C.2   160  ARG160      0.2260
    132  O         22.5990   23.2870    3.2790 O.2   160  ARG160     -0.2867
    133  CB        25.2470   23.9910    3.3660 C.3   160  ARG160      0.0307
    134  CG        25.2510   23.1700    4.6410 C.3   160  ARG160      0.0489
    135  CD        26.5960   22.5270    4.9410 C.3   160  ARG160      0.2205
    136  NE        26.4990   21.5460    6.0150 N.pl3 160  ARG160     -0.0865
    137  CZ        27.4980   21.0360    6.7210 C.cat 160  ARG160      0.5346
    138  NH1       28.7540   21.4000    6.4970 N.pl3 160  ARG160      0.1354
    139  NH2       27.2420   20.1430    7.6720 N.pl3 160  ARG160      0.1354
    140  N         19.5160   17.9440    3.5340 N.3   163  ASP163     -0.1239
    141  CA        19.2450   16.6360    2.9350 C.3   163  ASP163      0.1674
    142  C         17.9620   16.0470    3.5000 C.2   163  ASP163      0.2266
    143  O         17.3340   16.6330    4.3850 O.2   163  ASP163     -0.2867
    144  CB        20.4540   15.7360    3.1180 C.3   163  ASP163      0.1410
    145  CG        20.8050   15.3870    4.5450 C.2   163  ASP163      0.3668
    146  OD1       19.9220   15.2510    5.4150 O.co2 163  ASP163     -0.2456
    147  OD2       22.0210   15.2380    4.7920 O.co2 163  ASP163     -0.2456
    148  N         17.2840   13.7130    5.6440 N.3   165  TYR165     -0.1227
    149  CA        17.2080   13.5250    7.0900 C.3   165  TYR165      0.1736
    150  C         17.0100   14.8570    7.8140 C.2   165  TYR165      0.2595
    151  O         16.1830   14.9820    8.7280 O.2   165  TYR165     -0.2718
    152  CB        18.4470   12.8200    7.6350 C.3   165  TYR165      0.0548
    153  CG        18.6870   11.3760    7.2660 C.ar  165  TYR165     -0.0200
    154  CD1       17.7930   10.6140    6.5300 C.ar  165  TYR165     -0.0009
    155  CD2       19.8660   10.7560    7.6900 C.ar  165  TYR165     -0.0009
    156  CE1       18.0520    9.2910    6.2120 C.ar  165  TYR165      0.0417
    157  CE2       20.1360    9.4300    7.3820 C.ar  165  TYR165      0.0417
    158  CZ        19.2270    8.7070    6.6460 C.ar  165  TYR165      0.1957
    159  OH        19.4900    7.3880    6.3320 O.3   165  TYR165     -0.2866
    160  N         17.7360   15.8840    7.3960 N.am  166  GLU166     -0.1979
    161  CA        17.5980   17.2180    7.9790 C.3   166  GLU166      0.1602
    162  C         16.2160   17.8180    7.8190 C.2   166  GLU166      0.2287
    163  O         15.7210   18.5150    8.7130 O.2   166  GLU166     -0.2864
    164  CB        18.6500   18.1560    7.3690 C.3   166  GLU166      0.0415
    165  CG        20.0560   17.7700    7.8140 C.3   166  GLU166      0.1163
    166  CD        21.1450   18.4160    6.9930 C.2   166  GLU166      0.3649
    167  OE1       20.9390   18.7200    5.8020 O.co2 166  GLU166     -0.2457
    168  OE2       22.2430   18.6310    7.5370 O.co2 166  GLU166     -0.2457
@<TRIPOS>BOND
     1    48    49    1
     2    50    51    2
     3    50    49    1
     4    49    52    1
     5   129   130    1
     6    38    39    2
     7    38    37    1
     8    37    40    1
     9    37    36    1
    10    40    41    1
    11    52    53    1
    12   130   131    1
    13   130   133    1
    14   131   132    2
    15    42    41   ar
    16    42    44   ar
    17    41    43   ar
    18   141   144    1
    19   141   142    1
    20   141   140    1
    21    53    55    1
    22    53    54    1
    23   144   145    1
    24    44    46   ar
    25   133   134    1
    26   142   143    2
    27    43    45   ar
    28    46    45   ar
    29    46    47    1
    30   145   147   ar
    31   145   146   ar
    32   134   135    1
    33   135   136    1
    34    56    57    1
    35    64    66   ar
    36    64    62   ar
    37    33    34    1
    38    33    30    1
    39    66    65   ar
    40   148   149    1
    41   167   166   ar
    42    31    32    2
    43    31    30    1
    44   136   137    2
    45    62    61   ar
    46    34    35    1
    47   156   154   ar
    48   156   158   ar
    49    57    58    1
    50    57    60    1
    51    65    63   ar
    52   159   158    1
    53   138   137    1
    54   154   153   ar
    55    30    29    1
    56   158   157   ar
    57   137   139    1
    58    61    63   ar
    59    61    60    1
    60    58    59    2
    61    67    68    1
    62   166   168   ar
    63   166   165    1
    64   149   152    1
    65   149   150    1
    66    35    29    1
    67   153   152    1
    68   153   155   ar
    69   164   165    1
    70   164   161    1
    71   157   155   ar
    72   160   150   am
    73   160   161    1
    74    29    20   am
    75   150   151    2
    76   162   161    1
    77   162   163    2
    78    69    68    1
    79    69    70    2
    80    68    71    1
    81    24    26   ar
    82    24    23   ar
    83    20    19    1
    84    20    21    2
    85    26    28   ar
    86    19    22    1
    87    19    18    1
    88    71    72    1
    89    22    23    1
    90   109   108    2
    91    23    25   ar
    92   110   108   am
    93    72    73    1
    94    28    27   ar
    95     7     6   ar
    96   108   107    1
    97    76    75    1
    98     8     6   ar
    99     6     5    1
   100    77    75    1
   101    75    74    2
   102   128   127    1
   103    25    27   ar
   104    74    73    1
   105     5     2    1
   106   118   120   ar
   107   118   116   ar
   108    92    93    1
   109    92    91    1
   110    93    94    2
   111   127   124    1
   112   120   121   ar
   113   115   116    1
   114   115   112    1
   115   124   123    1
   116   124   125    1
   117   107   104    1
   118   114   113    2
   119   116   117   ar
   120   126   125    2
   121    81    80    2
   122   113   123   am
   123   113   112    1
   124   104   103    1
   125   104   105    1
   126    96    94    1
   127    94    95    1
   128     2     3    1
   129     2     1    1
   130   121   122    1
   131   121   119   ar
   132    85    83   ar
   133    90    91    1
   134    90    87    1
   135   106   105    2
   136   117   119   ar
   137   112   111    1
   138    83    82    1
   139    83    84   ar
   140     3     4    2
   141   103    99   am
   142    82    79    1
   143    89    88    2
   144   100    99    2
   145   101   102    1
   146   101    98    1
   147    80    79    1
   148    80    86   am
   149    99    98    1
   150    88    87    1
   151    87    86    1
   152    79    78    1
   153    17    16    1
   154    98    97    1
   155    16    15    1
   156    13    14    1
   157    13    10    1
   158    11    10    1
   159    11    12    2
   160    15    14    1
   161     9    10    1
