@<TRIPOS>MOLECULE
tmp/1g41A00.pdb
 150 143 0 0 0
SMALL
GASTEIGER

@<TRIPOS>ATOM
      1  N         33.0540   30.5840   27.2780 N.3    15  HIS15      -0.1226
      2  CA        32.7620   29.1950   26.9490 C.3    15  HIS15       0.1752
      3  C         32.4670   29.0200   25.4560 C.2    15  HIS15       0.2596
      4  O         32.7650   27.9790   24.8790 O.2    15  HIS15      -0.2718
      5  CB        31.5450   28.7180   27.7420 C.3    15  HIS15       0.0759
      6  CG        31.7220   28.7680   29.2290 C.ar   15  HIS15       0.0818
      7  ND1       32.3920   27.7910   29.9320 N.ar   15  HIS15      -0.2268
      8  CD2       31.2940   29.6660   30.1480 C.ar   15  HIS15       0.1154
      9  CE1       32.3650   28.0820   31.2210 C.ar   15  HIS15       0.1986
     10  NE2       31.7050   29.2150   31.3790 N.ar   15  HIS15      -0.2212
     11  N         31.8950   30.0540   24.8460 N.am   16  ILE16      -0.1966
     12  CA        31.4910   30.0310   23.4390 C.3    16  ILE16       0.1727
     13  C         32.2110   31.0990   22.6230 C.2    16  ILE16       0.2616
     14  O         32.2010   32.2870   22.9800 O.2    16  ILE16      -0.2715
     15  CB        29.9470   30.2760   23.3050 C.3    16  ILE16       0.0290
     16  CG1       29.1840   29.2230   24.1050 C.3    16  ILE16       0.0022
     17  CG2       29.5020   30.2400   21.8480 C.3    16  ILE16       0.0023
     18  CD1       29.0510   29.5740   25.5660 C.3    16  ILE16       0.0001
     19  N         32.8390   30.6770   21.5320 N.am   17  ILE17      -0.1977
     20  CA        33.5430   31.6190   20.6700 C.3    17  ILE17       0.1596
     21  C         32.5410   32.1410   19.6570 C.2    17  ILE17       0.2287
     22  O         31.7840   31.3610   19.0840 O.2    17  ILE17      -0.2864
     23  CB        34.7300   30.9530   19.9130 C.3    17  ILE17       0.0276
     24  CG1       35.7760   30.4470   20.9170 C.3    17  ILE17       0.0022
     25  CG2       35.3630   31.9520   18.9430 C.3    17  ILE17       0.0022
     26  CD1       36.3210   31.5320   21.8500 C.3    17  ILE17       0.0001
     27  N         29.2810   34.0230   17.8910 N.3    19  GLN19      -0.1245
     28  CA        27.8310   34.0010   18.0730 C.3    19  GLN19       0.1566
     29  C         27.3590   35.0850   19.0590 C.2    19  GLN19       0.2260
     30  O         26.6780   34.7910   20.0460 O.2    19  GLN19      -0.2867
     31  CB        27.3770   32.6070   18.5530 C.3    19  GLN19       0.0367
     32  CG        28.1200   31.4340   17.8920 C.3    19  GLN19       0.0905
     33  CD        27.8530   31.2980   16.3840 C.2    19  GLN19       0.2608
     34  OE1       27.3850   32.2370   15.7260 O.2    19  GLN19      -0.2717
     35  NE2       28.1620   30.1270   15.8360 N.am   19  GLN19      -0.0878
     36  N         24.8090   23.0450   12.0260 N.3    58  THR58      -0.1203
     37  CA        25.1270   22.1450   13.1160 C.3    58  THR58       0.1994
     38  C         26.5350   22.3370   13.6860 C.2    58  THR58       0.2618
     39  O         27.4850   22.6880   12.9690 O.2    58  THR58      -0.2717
     40  CB        24.9140   20.6800   12.6740 C.3    58  THR58       0.1784
     41  OG1       25.3260   19.7980   13.7230 O.3    58  THR58      -0.2211
     42  CG2       25.6950   20.3780   11.3980 C.3    58  THR58       0.0376
     43  N         26.6410   22.1320   14.9950 N.am   59  GLY59      -0.1942
     44  CA        27.9070   22.2660   15.6900 C.3    59  GLY59       0.2014
     45  C         28.5320   23.6500   15.7670 C.2    59  GLY59       0.2639
     46  O         29.7660   23.7770   15.7000 O.2    59  GLY59      -0.2714
     47  N         27.7220   24.6970   15.9050 N.am   60  VAL60      -0.1963
     48  CA        28.2850   26.0430   16.0020 C.3    60  VAL60       0.1727
     49  C         28.0000   26.7240   17.3310 C.2    60  VAL60       0.2617
     50  O         28.3130   27.8960   17.4940 O.2    60  VAL60      -0.2715
     51  CB        27.8130   26.9710   14.8440 C.3    60  VAL60       0.0290
     52  CG1       28.3300   26.4260   13.5160 C.3    60  VAL60       0.0023
     53  CG2       26.2980   27.0940   14.8280 C.3    60  VAL60       0.0023
     54  N         27.4110   25.9950   18.2790 N.am   61  GLY61      -0.1940
     55  CA        27.1570   26.5620   19.5950 C.3    61  GLY61       0.2014
     56  C         25.7310   26.8120   20.0640 C.2    61  GLY61       0.2639
     57  O         25.5310   27.4130   21.1220 O.2    61  GLY61      -0.2714
     58  N         24.7370   26.3660   19.3100 N.am   62  LYS62      -0.1963
     59  CA        23.3500   26.5800   19.7090 C.3    62  LYS62       0.1728
     60  C         23.0520   25.9460   21.0620 C.2    62  LYS62       0.2617
     61  O         22.6670   26.6350   22.0020 O.2    62  LYS62      -0.2715
     62  CB        22.4020   26.0300   18.6450 C.3    62  LYS62       0.0311
     63  CG        22.4870   26.7820   17.3290 C.3    62  LYS62       0.0038
     64  CD        21.3910   26.3610   16.3820 C.3    62  LYS62       0.0206
     65  CE        21.9500   25.7180   15.1430 C.3    62  LYS62       0.1093
     66  NZ        22.7670   24.5340   15.5170 N.3    62  LYS62      -0.1314
     67  N         23.2450   24.6370   21.1660 N.am   63  THR63      -0.1937
     68  CA        22.9780   23.9370   22.4160 C.3    63  THR63       0.2028
     69  C         23.8900   24.4220   23.5310 C.2    63  THR63       0.2642
     70  O         23.4350   24.6840   24.6510 O.2    63  THR63      -0.2714
     71  CB        23.2090   22.4320   22.2870 C.3    63  THR63       0.1808
     72  OG1       22.5480   21.9420   21.1190 O.3    63  THR63      -0.2208
     73  CG2       22.6950   21.7060   23.5200 C.3    63  THR63       0.0379
     74  N         25.1800   24.5310   23.2110 N.am   64  GLU64      -0.1976
     75  CA        26.1760   24.9600   24.1830 C.3    64  GLU64       0.1602
     76  C         25.8090   26.2980   24.7940 C.2    64  GLU64       0.2287
     77  O         25.9590   26.4940   26.0040 O.2    64  GLU64      -0.2864
     78  CB        27.5580   25.0380   23.5420 C.3    64  GLU64       0.0415
     79  CG        28.6820   25.0350   24.5620 C.3    64  GLU64       0.1163
     80  CD        28.6690   23.7890   25.4360 C.2    64  GLU64       0.3649
     81  OE1       29.3220   23.8130   26.5010 O.co2  64  GLU64      -0.2457
     82  OE2       28.0130   22.7880   25.0620 O.co2  64  GLU64      -0.2457
     83  N         23.0620   25.4270   27.2070 N.3    67  ARG67      -0.1245
     84  CA        23.5590   24.6820   28.3660 C.3    67  ARG67       0.1563
     85  C         24.2360   25.6490   29.3240 C.2    67  ARG67       0.2260
     86  O         23.9140   25.7030   30.5110 O.2    67  ARG67      -0.2867
     87  CB        24.5880   23.6300   27.9540 C.3    67  ARG67       0.0307
     88  CG        24.0530   22.4360   27.2050 C.3    67  ARG67       0.0489
     89  CD        25.2010   21.4870   26.8840 C.3    67  ARG67       0.2205
     90  NE        24.8030   20.3890   26.0080 N.pl3  67  ARG67      -0.0865
     91  CZ        23.9300   19.4450   26.3410 C.cat  67  ARG67       0.5346
     92  NH1       23.3580   19.4580   27.5380 N.pl3  67  ARG67       0.1354
     93  NH2       23.6340   18.4830   25.4790 N.pl3  67  ARG67       0.1354
     94  N         15.6710   20.9280   20.1650 N.3   147  ASP147     -0.1239
     95  CA        16.4760   20.7850   18.9630 C.3   147  ASP147      0.1674
     96  C         15.6500   20.3470   17.7540 C.2   147  ASP147      0.2266
     97  O         14.5280   19.8640   17.8940 O.2   147  ASP147     -0.2867
     98  CB        17.5980   19.7760   19.2150 C.3   147  ASP147      0.1410
     99  CG        18.8380   20.0600   18.3850 C.2   147  ASP147      0.3668
    100  OD1       19.7890   19.2560   18.4490 O.co2 147  ASP147     -0.2456
    101  OD2       18.8660   21.0880   17.6740 O.co2 147  ASP147     -0.2456
    102  N         31.3240   28.4580   11.5860 N.3   226  LEU226     -0.1245
    103  CA        32.5940   28.7500   12.2390 C.3   226  LEU226      0.1561
    104  C         33.7340   28.6520   11.2130 C.2   226  LEU226      0.2260
    105  O         33.6840   27.8320   10.2910 O.2   226  LEU226     -0.2867
    106  CB        32.8400   27.7710   13.3920 C.3   226  LEU226      0.0270
    107  CG        31.9310   27.9090   14.6310 C.3   226  LEU226      0.0019
    108  CD1       32.1880   26.7560   15.6000 C.3   226  LEU226      0.0001
    109  CD2       32.1810   29.2380   15.3030 C.3   226  LEU226      0.0001
    110  N         38.6540   28.2780   19.7290 N.3   234  ILE234     -0.1245
    111  CA        37.9400   27.2570   20.4770 C.3   234  ILE234      0.1561
    112  C         38.9040   26.2430   21.1000 C.2   234  ILE234      0.2260
    113  O         38.7640   25.8700   22.2590 O.2   234  ILE234     -0.2867
    114  CB        36.9280   26.5240   19.5460 C.3   234  ILE234      0.0252
    115  CG1       35.8580   27.5180   19.0690 C.3   234  ILE234      0.0019
    116  CG2       36.2680   25.3490   20.2780 C.3   234  ILE234      0.0019
    117  CD1       34.8230   26.9230   18.1260 C.3   234  ILE234      0.0001
    118  N         38.2210   28.9110   25.2880 N.3   238  PRO238     -0.2116
    119  CA        37.1370   28.5600   26.2080 C.3   238  PRO238      0.1372
    120  C         37.6430   27.8410   27.4520 C.2   238  PRO238      0.2244
    121  O         38.6630   27.1570   27.4040 O.2   238  PRO238     -0.2868
    122  CB        36.2470   27.6520   25.3640 C.3   238  PRO238      0.0268
    123  CG        36.5250   28.1060   23.9500 C.3   238  PRO238      0.0207
    124  CD        38.0100   28.3080   23.9620 C.3   238  PRO238      0.0892
    125  N         32.2360   22.4110   14.8400 N.3   283  ALA283     -0.1231
    126  CA        33.1970   22.2350   15.9140 C.3   283  ALA283      0.1694
    127  C         33.3880   20.7900   16.3450 C.2   283  ALA283      0.2591
    128  O         34.4660   20.4170   16.8080 O.2   283  ALA283     -0.2718
    129  CB        32.7870   23.0680   17.0900 C.3   283  ALA283      0.0304
    130  N         32.3620   19.9620   16.1930 N.am  284  ARG284     -0.1980
    131  CA        32.4950   18.5670   16.5830 C.3   284  ARG284      0.1597
    132  C         33.6720   17.8920   15.8990 C.2   284  ARG284      0.2287
    133  O         34.2930   16.9960   16.4690 O.2   284  ARG284     -0.2864
    134  CB        31.2030   17.8020   16.2890 C.3   284  ARG284      0.0334
    135  CG        30.0350   18.2900   17.1140 C.3   284  ARG284      0.0492
    136  CD        28.9430   17.2550   17.2330 C.3   284  ARG284      0.2205
    137  NE        27.9980   17.6260   18.2850 N.pl3 284  ARG284     -0.0865
    138  CZ        26.9170   18.3820   18.1030 C.cat 284  ARG284      0.5346
    139  NH1       26.6290   18.8460   16.8930 N.pl3 284  ARG284      0.1354
    140  NH2       26.1310   18.6840   19.1370 N.pl3 284  ARG284      0.1354
    141  N         36.8150   17.2100   17.8510 N.3   287  HIS287     -0.1241
    142  CA        36.9440   16.1040   18.7990 C.3   287  HIS287      0.1621
    143  C         37.7460   14.9340   18.2280 C.2   287  HIS287      0.2264
    144  O         38.7070   14.4610   18.8450 O.2   287  HIS287     -0.2867
    145  CB        35.5540   15.6180   19.2160 C.3   287  HIS287      0.0745
    146  CG        34.7080   16.6810   19.8420 C.ar  287  HIS287      0.0817
    147  ND1       33.3360   16.5810   19.9380 N.ar  287  HIS287     -0.2268
    148  CD2       35.0370   17.8710   20.3970 C.ar  287  HIS287      0.1154
    149  CE1       32.8580   17.6650   20.5230 C.ar  287  HIS287      0.1986
    150  NE2       33.8700   18.4640   20.8120 N.ar  287  HIS287     -0.2212
@<TRIPOS>BOND
     1   105   104    2
     2   104   103    1
     3    42    40    1
     4   102   103    1
     5    36    37    1
     6   103   106    1
     7    40    37    1
     8    40    41    1
     9    39    38    2
    10    37    38    1
    11   106   107    1
    12    52    51    1
    13    38    43   am
    14   107   109    1
    15   107   108    1
    16    53    51    1
    17   125   126    1
    18    51    48    1
    19    43    44    1
    20    65    66    1
    21    65    64    1
    22    44    45    1
    23    46    45    2
    24    34    33    2
    25    45    47   am
    26    35    33   am
    27   132   133    2
    28   132   131    1
    29    47    48    1
    30   126   127    1
    31   126   129    1
    32    48    49    1
    33   130   127   am
    34   130   131    1
    35   134   131    1
    36   134   135    1
    37   127   128    2
    38    64    63    1
    39    33    32    1
    40   139   138    1
    41   135   136    1
    42   136   137    1
    43    63    62    1
    44    49    50    2
    45    49    54   am
    46   101    99   ar
    47    96    97    2
    48    96    95    1
    49   141   142    1
    50    27    28    1
    51    32    31    1
    52    28    31    1
    53    28    29    1
    54   138   137    2
    55   138   140    1
    56   117   115    1
    57   143   142    1
    58   143   144    2
    59    54    55    1
    60    99   100   ar
    61    99    98    1
    62    62    59    1
    63   142   145    1
    64    25    23    1
    65    95    98    1
    66    95    94    1
    67    29    30    2
    68   115   114    1
    69    22    21    2
    70   145   146    1
    71    58    59    1
    72    58    56   am
    73   114   116    1
    74   114   111    1
    75    55    56    1
    76    21    20    1
    77    59    60    1
    78   110   111    1
    79   146   147   ar
    80   146   148   ar
    81    23    20    1
    82    23    24    1
    83   147   149   ar
    84    56    57    2
    85   148   150   ar
    86   111   112    1
    87   149   150   ar
    88    20    19    1
    89    24    26    1
    90    60    67   am
    91    60    61    2
    92   112   113    2
    93    72    71    1
    94    67    68    1
    95    19    13   am
    96    17    15    1
    97    71    68    1
    98    71    73    1
    99    68    69    1
   100    13    14    2
   101    13    12    1
   102    74    69   am
   103    74    75    1
   104    15    12    1
   105    15    16    1
   106    12    11    1
   107    69    70    2
   108    78    75    1
   109    78    79    1
   110   123   124    1
   111   123   122    1
   112   124   118    1
   113    16    18    1
   114    75    76    1
   115    79    80    1
   116    76    77    2
   117    11     3   am
   118     4     3    2
   119    82    80   ar
   120   118   119    1
   121   122   119    1
   122    80    81   ar
   123     3     2    1
   124    93    91    1
   125    90    91    2
   126    90    89    1
   127   119   120    1
   128    91    92    1
   129    89    88    1
   130     2     1    1
   131     2     5    1
   132    88    87    1
   133    83    84    1
   134   121   120    2
   135     5     6    1
   136    87    84    1
   137    84    85    1
   138     6     7   ar
   139     6     8   ar
   140    85    86    2
   141     7     9   ar
   142     8    10   ar
   143     9    10   ar
