@<TRIPOS>MOLECULE
tmp/1g49B00.pdb
 154 155 0 0 0
SMALL
GASTEIGER

@<TRIPOS>ATOM
      1  N         10.4710   46.3880   49.4360 N.3    80  ASN80      -0.1225
      2  CA         9.4860   47.4180   49.1490 C.3    80  ASN80       0.1785
      3  C          8.0690   47.0170   49.5670 C.2    80  ASN80       0.2597
      4  O          7.8580   46.5830   50.6840 O.2    80  ASN80      -0.2718
      5  CB         9.5520   47.7820   47.6620 C.3    80  ASN80       0.1169
      6  CG        10.8420   48.4910   47.3230 C.2    80  ASN80       0.2627
      7  OD1       11.3450   49.2750   48.1280 O.2    80  ASN80      -0.2716
      8  ND2       11.4360   48.1580   46.2020 N.am   80  ASN80      -0.0877
      9  N          7.0980   47.1560   48.6570 N.am   81  VAL81      -0.1966
     10  CA         5.7090   46.8290   49.0300 C.3    81  VAL81       0.1727
     11  C          5.5630   45.3650   49.4760 C.2    81  VAL81       0.2616
     12  O          5.9040   44.4540   48.7480 O.2    81  VAL81      -0.2715
     13  CB         4.7500   47.0900   47.8550 C.3    81  VAL81       0.0290
     14  CG1        3.3580   46.6280   48.2250 C.3    81  VAL81       0.0023
     15  CG2        4.7510   48.5670   47.4550 C.3    81  VAL81       0.0023
     16  N          5.0430   45.1290   50.6650 N.am   82  LEU82      -0.1963
     17  CA         4.9670   43.7560   51.1590 C.3    82  LEU82       0.1728
     18  C          3.5540   43.1700   50.9040 C.2    82  LEU82       0.2616
     19  O          3.3560   41.9620   50.7780 O.2    82  LEU82      -0.2715
     20  CB         5.1890   43.7840   52.6660 C.3    82  LEU82       0.0311
     21  CG         6.5280   44.4540   53.0540 C.3    82  LEU82       0.0022
     22  CD1        6.5810   44.5690   54.5670 C.3    82  LEU82       0.0001
     23  CD2        7.7160   43.6610   52.5180 C.3    82  LEU82       0.0001
     24  N          2.5830   44.0550   50.8770 N.am   83  ALA83      -0.1963
     25  CA         1.2280   43.6210   50.6740 C.3    83  ALA83       0.1728
     26  C          0.3690   44.8330   50.4760 C.2    83  ALA83       0.2616
     27  O          0.7890   45.9610   50.7580 O.2    83  ALA83      -0.2715
     28  CB         0.7600   42.8650   51.9550 C.3    83  ALA83       0.0334
     29  N         -0.8540   44.5900   50.0230 N.am   84  HIS84      -0.1973
     30  CA        -1.8440   45.6530   49.9500 C.3    84  HIS84       0.1656
     31  C         -3.2720   45.0890   50.1520 C.2    84  HIS84       0.2291
     32  O         -3.5310   43.8640   50.0540 O.2    84  HIS84      -0.2864
     33  CB        -1.7170   46.4070   48.6340 C.3    84  HIS84       0.0771
     34  CG        -1.8270   45.5270   47.4280 C.ar   84  HIS84       0.0820
     35  ND1       -1.1030   45.7460   46.2740 N.ar   84  HIS84      -0.2267
     36  CD2       -2.6290   44.4640   47.1700 C.ar   84  HIS84       0.1154
     37  CE1       -1.4430   44.8450   45.3640 C.ar   84  HIS84       0.1986
     38  NE2       -2.3540   44.0420   45.8860 N.ar   84  HIS84      -0.2212
     39  N          1.8800   40.3520   61.7090 N.3   115  LEU115     -0.1231
     40  CA         1.9160   41.8010   61.8110 C.3   115  LEU115      0.1693
     41  C          1.4140   42.4430   60.5190 C.2   115  LEU115      0.2591
     42  O          0.5680   43.3150   60.5410 O.2   115  LEU115     -0.2718
     43  CB         3.3230   42.3100   62.0970 C.3   115  LEU115      0.0284
     44  CG         3.6890   42.4150   63.5560 C.3   115  LEU115      0.0019
     45  CD1        5.1700   42.8540   63.6450 C.3   115  LEU115      0.0001
     46  CD2        2.7570   43.4090   64.2610 C.3   115  LEU115      0.0001
     47  N          1.9340   41.9900   59.3760 N.am  116  VAL116     -0.1980
     48  CA         1.4620   42.5820   58.1400 C.3   116  VAL116      0.1595
     49  C         -0.0250   42.2930   57.8970 C.2   116  VAL116      0.2287
     50  O         -0.7730   43.1730   57.4400 O.2   116  VAL116     -0.2864
     51  CB         2.3400   42.1390   56.9570 C.3   116  VAL116      0.0276
     52  CG1        1.7430   42.6510   55.6270 C.3   116  VAL116      0.0022
     53  CG2        3.7750   42.6390   57.2300 C.3   116  VAL116      0.0022
     54  N         -2.1540   44.5700   59.9390 N.3   119  HIS119     -0.1226
     55  CA        -2.1340   45.8780   59.3200 C.3   119  HIS119      0.1752
     56  C         -3.0360   45.8450   58.0730 C.2   119  HIS119      0.2595
     57  O         -3.8420   46.7230   57.9040 O.2   119  HIS119     -0.2718
     58  CB        -0.6850   46.2330   58.9350 C.3   119  HIS119      0.0759
     59  CG        -0.5350   47.5300   58.1890 C.ar  119  HIS119      0.0818
     60  ND1       -0.0210   48.6670   58.7790 N.ar  119  HIS119     -0.2268
     61  CD2       -0.7490   47.8450   56.8880 C.ar  119  HIS119      0.1154
     62  CE1        0.0550   49.6350   57.8790 C.ar  119  HIS119      0.1986
     63  NE2       -0.3860   49.1630   56.7220 N.ar  119  HIS119     -0.2212
     64  N         -2.9000   44.8460   57.1990 N.am  120  GLU120     -0.1979
     65  CA        -3.7530   44.7790   55.9790 C.3   120  GLU120      0.1602
     66  C         -5.2380   44.6840   56.3350 C.2   120  GLU120      0.2287
     67  O         -6.0880   45.3240   55.7100 O.2   120  GLU120     -0.2864
     68  CB        -3.4270   43.5640   55.1190 C.3   120  GLU120      0.0415
     69  CG        -2.0720   43.6440   54.4330 C.3   120  GLU120      0.1163
     70  CD        -1.8110   45.0130   53.8370 C.2   120  GLU120      0.3649
     71  OE1       -2.6360   45.5000   53.0440 O.co2 120  GLU120     -0.2457
     72  OE2       -0.7640   45.6100   54.1570 O.co2 120  GLU120     -0.2457
     73  N         -6.8400   47.7760   56.8640 N.3   123  HIS123     -0.1241
     74  CA        -7.2850   48.3880   55.6070 C.3   123  HIS123      0.1621
     75  C         -8.5860   47.8080   55.1640 C.2   123  HIS123      0.2264
     76  O         -9.5150   48.5490   54.8310 O.2   123  HIS123     -0.2867
     77  CB        -6.2780   48.2030   54.4910 C.3   123  HIS123      0.0745
     78  CG        -5.0960   49.0970   54.6330 C.ar  123  HIS123      0.0817
     79  ND1       -5.2270   50.4220   54.9900 N.ar  123  HIS123     -0.2268
     80  CD2       -3.7610   48.8590   54.5250 C.ar  123  HIS123      0.1154
     81  CE1       -4.0190   50.9650   55.0760 C.ar  123  HIS123      0.1986
     82  NE2       -3.1150   50.0400   54.7990 N.ar  123  HIS123     -0.2212
     83  N         -3.6650   54.7730   56.4510 N.3   129  HIS129     -0.1241
     84  CA        -2.3780   54.9030   57.1330 C.3   129  HIS129      0.1621
     85  C         -2.4070   55.9810   58.2010 C.2   129  HIS129      0.2264
     86  O         -2.8540   57.0940   57.9480 O.2   129  HIS129     -0.2867
     87  CB        -1.2240   55.1570   56.1400 C.3   129  HIS129      0.0745
     88  CG        -0.9110   53.9750   55.2800 C.ar  129  HIS129      0.0817
     89  ND1       -0.5010   54.0860   53.9680 N.ar  129  HIS129     -0.2268
     90  CD2       -1.0110   52.6480   55.5310 C.ar  129  HIS129      0.1154
     91  CE1       -0.3400   52.8770   53.4560 C.ar  129  HIS129      0.1986
     92  NE2       -0.6210   51.9880   54.3900 N.ar  129  HIS129     -0.2212
     93  N          1.6260   53.1800   65.7910 N.3   135  ALA135     -0.1231
     94  CA         0.4260   52.4300   65.4200 C.3   135  ALA135      0.1694
     95  C          0.6960   51.2590   64.4760 C.2   135  ALA135      0.2591
     96  O          1.5940   51.3100   63.6590 O.2   135  ALA135     -0.2718
     97  CB        -0.6280   53.3470   64.8380 C.3   135  ALA135      0.0304
     98  N         -0.1090   50.2090   64.6110 N.am  136  LEU136     -0.1980
     99  CA        -0.0580   49.1090   63.6710 C.3   136  LEU136      0.1596
    100  C         -0.2420   49.7000   62.2680 C.2   136  LEU136      0.2287
    101  O          0.3950   49.2600   61.3230 O.2   136  LEU136     -0.2864
    102  CB        -1.1850   48.1300   64.0050 C.3   136  LEU136      0.0297
    103  CG        -1.3850   46.9560   63.0470 C.3   136  LEU136      0.0022
    104  CD1       -0.1260   46.1070   62.9060 C.3   136  LEU136      0.0001
    105  CD2       -2.5860   46.1050   63.4620 C.3   136  LEU136      0.0001
    106  N          0.7230   52.4550   60.9430 N.3   138  TYR138     -0.1228
    107  CA         1.7490   53.3820   60.4330 C.3   138  TYR138      0.1721
    108  C          2.4490   52.6630   59.2810 C.2   138  TYR138      0.2437
    109  O          2.8040   51.5090   59.4320 O.2   138  TYR138     -0.2733
    110  CB         2.7220   53.8000   61.5450 C.3   138  TYR138      0.0547
    111  CG         3.7440   54.8210   61.0980 C.ar  138  TYR138     -0.0200
    112  CD1        3.3630   56.1250   60.7660 C.ar  138  TYR138     -0.0009
    113  CD2        5.0990   54.4740   60.9570 C.ar  138  TYR138     -0.0009
    114  CE1        4.3020   57.0620   60.2970 C.ar  138  TYR138      0.0417
    115  CE2        6.0360   55.4120   60.5240 C.ar  138  TYR138      0.0417
    116  CZ         5.6350   56.7000   60.1910 C.ar  138  TYR138      0.1957
    117  OH         6.5680   57.6170   59.7390 O.3   138  TYR138     -0.2866
    118  N          2.6020   53.3260   58.1300 N.am  139  PRO139     -0.2718
    119  CA         3.1150   52.7180   56.9000 C.3   139  PRO139      0.1535
    120  C          4.6050   52.3800   56.8850 C.2   139  PRO139      0.2598
    121  O          5.2530   52.4160   55.8340 O.2   139  PRO139     -0.2715
    122  CB         2.8310   53.8130   55.8440 C.3   139  PRO139      0.0310
    123  CG         2.9730   55.0490   56.6170 C.3   139  PRO139      0.0237
    124  CD         2.2610   54.7470   57.9040 C.3   139  PRO139      0.0939
    125  N          5.1530   52.0510   58.0440 N.am  140  LEU140     -0.1964
    126  CA         6.5350   51.6040   58.0830 C.3   140  LEU140      0.1728
    127  C          6.5520   50.2550   58.7520 C.2   140  LEU140      0.2616
    128  O          5.9930   50.0730   59.8420 O.2   140  LEU140     -0.2715
    129  CB         7.4270   52.5830   58.8460 C.3   140  LEU140      0.0311
    130  CG         7.6760   53.9230   58.1720 C.3   140  LEU140      0.0022
    131  CD1        8.7940   54.6720   58.8990 C.3   140  LEU140      0.0001
    132  CD2        8.0570   53.7090   56.6950 C.3   140  LEU140      0.0001
    133  N          7.1330   49.2880   58.0650 N.am  141  TYR141     -0.1960
    134  CA         7.3400   48.0140   58.6860 C.3   141  TYR141      0.1771
    135  C          8.5450   48.2500   59.5870 C.2   141  TYR141      0.2619
    136  O          9.7010   48.1930   59.1250 O.2   141  TYR141     -0.2715
    137  CB         7.6120   46.9230   57.6550 C.3   141  TYR141      0.0574
    138  CG         7.6870   45.5250   58.2510 C.ar  141  TYR141     -0.0198
    139  CD1        6.5630   44.9240   58.7840 C.ar  141  TYR141     -0.0009
    140  CD2        8.8850   44.8200   58.2800 C.ar  141  TYR141     -0.0009
    141  CE1        6.6230   43.6650   59.3390 C.ar  141  TYR141      0.0417
    142  CE2        8.9610   43.5730   58.8250 C.ar  141  TYR141      0.0417
    143  CZ         7.8280   42.9920   59.3540 C.ar  141  TYR141      0.1957
    144  OH         7.8940   41.7440   59.9190 O.3   141  TYR141     -0.2866
    145  N          8.2650   48.5850   60.8540 N.am  142  HIS142     -0.1973
    146  CA         9.3210   48.8170   61.8520 C.3   142  HIS142      0.1656
    147  C         10.0970   47.5230   62.0100 C.2   142  HIS142      0.2291
    148  O          9.6650   46.4410   61.5580 O.2   142  HIS142     -0.2864
    149  CB         8.7680   49.2320   63.2360 C.3   142  HIS142      0.0771
    150  CG         8.6960   50.7180   63.4670 C.ar  142  HIS142      0.0820
    151  ND1        9.6780   51.5980   63.0480 N.ar  142  HIS142     -0.2267
    152  CD2        7.7610   51.4730   64.0950 C.ar  142  HIS142      0.1154
    153  CE1        9.3410   52.8300   63.3950 C.ar  142  HIS142      0.1986
    154  NE2        8.1790   52.7820   64.0280 N.ar  142  HIS142     -0.2212
@<TRIPOS>BOND
     1    37    38   ar
     2    37    35   ar
     3    38    36   ar
     4     8     6   am
     5    35    34   ar
     6    36    34   ar
     7     6     5    1
     8     6     7    2
     9    34    33    1
    10    15    13    1
    11     5     2    1
    12    13    14    1
    13    13    10    1
    14    33    30    1
    15     9    10    1
    16     9     3   am
    17    12    11    2
    18    10    11    1
    19     2     1    1
    20     2     3    1
    21    11    16   am
    22     3     4    2
    23    30    29    1
    24    30    31    1
    25    29    26   am
    26    32    31    2
    27    26    25    1
    28    26    27    2
    29    16    17    1
    30    25    24    1
    31    25    28    1
    32    19    18    2
    33    24    18   am
    34    18    17    1
    35    17    20    1
    36    23    21    1
    37    20    21    1
    38    71    70   ar
    39    21    22    1
    40    91    89   ar
    41    91    92   ar
    42    70    72   ar
    43    70    69    1
    44    89    88   ar
    45    92    90   ar
    46    69    68    1
    47    77    78    1
    48    77    74    1
    49    80    78   ar
    50    80    82   ar
    51    78    79   ar
    52    82    81   ar
    53    76    75    2
    54    79    81   ar
    55    68    65    1
    56    75    74    1
    57    88    90   ar
    58    88    87    1
    59    74    73    1
    60    52    51    1
    61    67    66    2
    62   121   120    2
    63   122   123    1
    64   122   119    1
    65    65    66    1
    66    65    64    1
    67    87    84    1
    68    83    84    1
    69   123   124    1
    70   132   130    1
    71    63    61   ar
    72    63    62   ar
    73   120   119    1
    74   120   125   am
    75    61    59   ar
    76   119   118    1
    77    51    53    1
    78    51    48    1
    79    84    85    1
    80    64    56   am
    81    50    49    2
    82   137   138    1
    83   137   134    1
    84    62    60   ar
    85    49    48    1
    86    57    56    2
    87   124   118    1
    88    86    85    2
    89   125   126    1
    90   133   134    1
    91   133   127   am
    92    56    55    1
    93   126   127    1
    94   126   129    1
    95   118   108   am
    96    48    47    1
    97   130   129    1
    98   130   131    1
    99    59    60   ar
   100    59    58    1
   101   138   140   ar
   102   138   139   ar
   103   140   142   ar
   104   134   135    1
   105   127   128    2
   106   139   141   ar
   107   142   143   ar
   108    58    55    1
   109   136   135    2
   110   108   109    2
   111   108   107    1
   112    55    54    1
   113   141   143   ar
   114   143   144    1
   115    47    41   am
   116   135   145   am
   117   117   116    1
   118   116   114   ar
   119   116   115   ar
   120   114   112   ar
   121   107   106    1
   122   107   110    1
   123    41    42    2
   124    41    40    1
   125   115   113   ar
   126   112   111   ar
   127   145   146    1
   128   113   111   ar
   129   111   110    1
   130   101   100    2
   131   148   147    2
   132    39    40    1
   133    40    43    1
   134   146   147    1
   135   146   149    1
   136    43    44    1
   137   100    99    1
   138   104   103    1
   139   103   105    1
   140   103   102    1
   141   151   153   ar
   142   151   150   ar
   143   149   150    1
   144   153   154   ar
   145   150   152   ar
   146    44    45    1
   147    44    46    1
   148    96    95    2
   149    99   102    1
   150    99    98    1
   151   154   152   ar
   152    95    98   am
   153    95    94    1
   154    97    94    1
   155    94    93    1
