@<TRIPOS>MOLECULE
tmp/1g4aB00.pdb
 159 151 0 0 0
SMALL
GASTEIGER

@<TRIPOS>ATOM
      1  N         44.6640   99.3610   28.1800 N.3    16  HIS16      -0.1226
      2  CA        43.5550  100.1270   28.7310 C.3    16  HIS16       0.1752
      3  C         43.3870  100.0650   30.2430 C.2    16  HIS16       0.2596
      4  O         43.3780  101.1000   30.9060 O.2    16  HIS16      -0.2718
      5  CB        42.2680   99.6840   28.0650 C.3    16  HIS16       0.0759
      6  CG        42.3420   99.6970   26.5760 C.ar   16  HIS16       0.0818
      7  ND1       43.0370   98.7490   25.8610 N.ar   16  HIS16      -0.2268
      8  CD2       41.8430  100.5640   25.6650 C.ar   16  HIS16       0.1154
      9  CE1       42.9620   99.0290   24.5730 C.ar   16  HIS16       0.1986
     10  NE2       42.2420  100.1250   24.4260 N.ar   16  HIS16      -0.2212
     11  N         43.2510   98.8630   30.7930 N.am   17  ILE17      -0.1966
     12  CA        43.0500   98.7220   32.2350 C.3    17  ILE17       0.1727
     13  C         44.3450   98.5530   33.0190 C.2    17  ILE17       0.2616
     14  O         45.3120   98.0220   32.5110 O.2    17  ILE17      -0.2715
     15  CB        42.1110   97.5270   32.5610 C.3    17  ILE17       0.0290
     16  CG1       40.8250   97.5990   31.7300 C.3    17  ILE17       0.0022
     17  CG2       41.7180   97.5640   34.0130 C.3    17  ILE17       0.0023
     18  CD1       40.8410   96.7780   30.4560 C.3    17  ILE17       0.0001
     19  N         44.3570   99.0240   34.2580 N.am   18  ILE18      -0.1977
     20  CA        45.5190   98.9130   35.1340 C.3    18  ILE18       0.1596
     21  C         45.2120   97.8120   36.1330 C.2    18  ILE18       0.2287
     22  O         44.0900   97.7210   36.6360 O.2    18  ILE18      -0.2864
     23  CB        45.7700  100.2350   35.9330 C.3    18  ILE18       0.0276
     24  CG1       46.2830  101.3350   34.9950 C.3    18  ILE18       0.0022
     25  CG2       46.7210   99.9960   37.0890 C.3    18  ILE18       0.0022
     26  CD1       47.4630  100.9350   34.1030 C.3    18  ILE18       0.0001
     27  N         44.3200   94.3030   38.0530 N.3    20  GLN20      -0.1245
     28  CA        43.2280   93.3690   37.8490 C.3    20  GLN20       0.1566
     29  C         43.5920   92.3260   36.7930 C.2    20  GLN20       0.2260
     30  O         42.8000   92.0320   35.9090 O.2    20  GLN20      -0.2867
     31  CB        41.9570   94.1130   37.4070 C.3    20  GLN20       0.0367
     32  CG        41.5560   95.2890   38.2570 C.3    20  GLN20       0.0905
     33  CD        41.3300   94.9290   39.7010 C.2    20  GLN20       0.2608
     34  OE1       41.4850   93.7870   40.1070 O.2    20  GLN20      -0.2717
     35  NE2       40.9550   95.9150   40.4920 N.am   20  GLN20      -0.0878
     36  N         33.3110   99.0210   43.9770 N.3    59  THR59      -0.1203
     37  CA        32.9650   99.9150   42.8900 C.3    59  THR59       0.1994
     38  C         34.1720  100.6920   42.4170 C.2    59  THR59       0.2618
     39  O         34.9680  101.1650   43.2310 O.2    59  THR59      -0.2717
     40  CB        31.8560  100.8900   43.3300 C.3    59  THR59       0.1784
     41  OG1       31.7200  101.9500   42.3680 O.3    59  THR59      -0.2211
     42  CG2       32.1680  101.4450   44.7070 C.3    59  THR59       0.0376
     43  N         34.2920  100.7960   41.0940 N.am   60  GLY60      -0.1942
     44  CA        35.3810  101.5190   40.4570 C.3    60  GLY60       0.2014
     45  C         36.6880  100.7630   40.3850 C.2    60  GLY60       0.2639
     46  O         37.6810  101.1640   40.9890 O.2    60  GLY60      -0.2714
     47  N         36.7080   99.6590   39.6660 N.am   61  VAL61      -0.1963
     48  CA        37.9340   98.9160   39.5770 C.3    61  VAL61       0.1727
     49  C         38.1880   98.3290   38.2140 C.2    61  VAL61       0.2617
     50  O         39.3310   98.1320   37.8700 O.2    61  VAL61      -0.2715
     51  CB        38.0210   97.7890   40.6430 C.3    61  VAL61       0.0290
     52  CG1       38.1180   98.3860   42.0300 C.3    61  VAL61       0.0023
     53  CG2       36.8280   96.8910   40.5550 C.3    61  VAL61       0.0023
     54  N         37.1610   98.0380   37.4250 N.am   62  GLY62      -0.1940
     55  CA        37.4290   97.4940   36.1080 C.3    62  GLY62       0.2014
     56  C         36.4070   96.5110   35.5930 C.2    62  GLY62       0.2639
     57  O         36.2410   96.3380   34.3860 O.2    62  GLY62      -0.2714
     58  N         35.7150   95.8610   36.5160 N.am   63  LYS63      -0.1963
     59  CA        34.7200   94.8780   36.1610 C.3    63  LYS63       0.1728
     60  C         34.1060   95.2400   34.8390 C.2    63  LYS63       0.2617
     61  O         34.2950   94.5510   33.8440 O.2    63  LYS63      -0.2715
     62  CB        33.6540   94.8090   37.2380 C.3    63  LYS63       0.0311
     63  CG        34.1950   94.3190   38.5570 C.3    63  LYS63       0.0038
     64  CD        33.1260   94.1930   39.6500 C.3    63  LYS63       0.0206
     65  CE        32.6920   95.5350   40.1570 C.3    63  LYS63       0.1093
     66  NZ        33.8720   96.4180   40.3480 N.3    63  LYS63      -0.1314
     67  N         33.4020   96.3610   34.8320 N.am   64  THR64      -0.1937
     68  CA        32.7030   96.8530   33.6550 C.3    64  THR64       0.2028
     69  C         33.6020   97.3170   32.5240 C.2    64  THR64       0.2642
     70  O         33.2450   97.1820   31.3460 O.2    64  THR64      -0.2714
     71  CB        31.8280   97.9960   34.0570 C.3    64  THR64       0.1808
     72  OG1       31.2850   97.7090   35.3450 O.3    64  THR64      -0.2208
     73  CG2       30.7130   98.1820   33.0660 C.3    64  THR64       0.0379
     74  N         34.7590   97.8690   32.8930 N.am   65  GLU65      -0.1976
     75  CA        35.7240   98.3790   31.9270 C.3    65  GLU65       0.1602
     76  C         36.3900   97.2650   31.1300 C.2    65  GLU65       0.2287
     77  O         36.4890   97.3500   29.9040 O.2    65  GLU65      -0.2864
     78  CB        36.7690   99.2280   32.6440 C.3    65  GLU65       0.0415
     79  CG        37.6550  100.0050   31.7090 C.3    65  GLU65       0.1163
     80  CD        36.8960  100.5550   30.5080 C.2    65  GLU65       0.3649
     81  OE1       37.5170  100.6170   29.4230 O.co2  65  GLU65      -0.2457
     82  OE2       35.6990  100.9210   30.6400 O.co2  65  GLU65      -0.2457
     83  N         34.0440   95.8690   28.5270 N.3    68  ARG68      -0.1245
     84  CA        33.6100   96.8270   27.5240 C.3    68  ARG68       0.1563
     85  C         34.7270   96.8780   26.5210 C.2    68  ARG68       0.2260
     86  O         34.4970   96.9450   25.3250 O.2    68  ARG68      -0.2867
     87  CB        33.4020   98.2070   28.1590 C.3    68  ARG68       0.0307
     88  CG        32.3220   99.0770   27.5410 C.3    68  ARG68       0.0489
     89  CD        31.8550  100.0800   28.5720 C.3    68  ARG68       0.2205
     90  NE        30.4510  100.4460   28.4090 N.pl3  68  ARG68      -0.0865
     91  CZ        29.7220  101.0520   29.3430 C.cat  68  ARG68       0.5346
     92  NH1       30.2580  101.3590   30.5080 N.pl3  68  ARG68       0.1354
     93  NH2       28.4540  101.3570   29.1180 N.pl3  68  ARG68       0.1354
     94  N         25.5580   96.4690   28.0680 N.3    80  LYS80      -0.1245
     95  CA        25.5840   96.4560   29.5250 C.3    80  LYS80       0.1561
     96  C         24.2060   96.6420   30.1100 C.2    80  LYS80       0.2260
     97  O         23.4770   97.5590   29.7430 O.2    80  LYS80      -0.2867
     98  CB        26.5000   97.5600   30.0610 C.3    80  LYS80       0.0271
     99  CG        26.4790   97.6850   31.5800 C.3    80  LYS80       0.0035
    100  CD        27.4220   98.7480   32.1350 C.3    80  LYS80       0.0206
    101  CE        27.3830   98.6920   33.6630 C.3    80  LYS80       0.1093
    102  NZ        28.2300   99.6620   34.3950 N.3    80  LYS80      -0.1314
    103  N         24.7640   93.7750   35.2420 N.3   169  ASP169     -0.1239
    104  CA        25.4590   94.6040   36.2090 C.3   169  ASP169      0.1674
    105  C         24.7520   94.6710   37.5560 C.2   169  ASP169      0.2266
    106  O         23.5310   94.8040   37.6300 O.2   169  ASP169     -0.2867
    107  CB        25.6660   96.0090   35.6260 C.3   169  ASP169      0.1410
    108  CG        26.6460   96.8360   36.4270 C.2   169  ASP169      0.3668
    109  OD1       27.8170   96.4330   36.5500 O.co2 169  ASP169     -0.2456
    110  OD2       26.2410   97.8940   36.9370 O.co2 169  ASP169     -0.2456
    111  N         41.6270   99.4260   44.0110 N.3   248  LEU248     -0.1245
    112  CA        42.7410  100.1810   43.4620 C.3   248  LEU248      0.1561
    113  C         43.4620  101.0610   44.4770 C.2   248  LEU248      0.2260
    114  O         42.8440  101.7410   45.2990 O.2   248  LEU248     -0.2867
    115  CB        42.2610  101.0690   42.3180 C.3   248  LEU248      0.0270
    116  CG        42.0520  100.4700   40.9450 C.3   248  LEU248      0.0019
    117  CD1       41.3590   99.1550   41.0670 C.3   248  LEU248      0.0001
    118  CD2       41.2640  101.4380   40.1180 C.3   248  LEU248      0.0001
    119  N         46.4830  104.8370   36.4050 N.3   256  ILE256     -0.1245
    120  CA        45.2880  105.0530   35.6130 C.3   256  ILE256      0.1561
    121  C         45.2710  106.4520   35.0340 C.2   256  ILE256      0.2260
    122  O         44.5720  106.7220   34.0710 O.2   256  ILE256     -0.2867
    123  CB        44.0190  104.8210   36.4500 C.3   256  ILE256      0.0252
    124  CG1       43.9780  103.3640   36.9190 C.3   256  ILE256      0.0019
    125  CG2       42.7730  105.1670   35.6300 C.3   256  ILE256      0.0019
    126  CD1       42.8600  103.0510   37.8690 C.3   256  ILE256      0.0001
    127  N         47.4640  103.8060   30.5880 N.3   260  PRO260     -0.2116
    128  CA        46.6000  103.4140   29.4660 C.3   260  PRO260      0.1372
    129  C         46.7230  104.2180   28.1550 C.2   260  PRO260      0.2244
    130  O         46.5920  105.4420   28.1440 O.2   260  PRO260     -0.2868
    131  CB        45.1960  103.4520   30.0790 C.3   260  PRO260      0.0268
    132  CG        45.3870  104.0210   31.4830 C.3   260  PRO260      0.0207
    133  CD        46.7490  103.6350   31.8600 C.3   260  PRO260      0.0892
    134  N         38.2030  104.5920   41.1440 N.3   305  ALA305     -0.1231
    135  CA        39.0340  105.2420   40.1490 C.3   305  ALA305      0.1694
    136  C         38.1880  106.2900   39.4750 C.2   305  ALA305      0.2591
    137  O         38.6720  107.2930   38.9570 O.2   305  ALA305     -0.2718
    138  CB        39.4890  104.2420   39.1490 C.3   305  ALA305      0.0304
    139  N         36.8920  106.0300   39.4750 N.am  306  ARG306     -0.1980
    140  CA        35.9680  106.9420   38.8740 C.3   306  ARG306      0.1597
    141  C         36.3450  108.3380   39.3410 C.2   306  ARG306      0.2287
    142  O         36.3770  109.2560   38.5310 O.2   306  ARG306     -0.2864
    143  CB        34.5450  106.5640   39.2700 C.3   306  ARG306      0.0334
    144  CG        33.5930  106.6450   38.0910 C.3   306  ARG306      0.0492
    145  CD        32.2090  106.0930   38.3880 C.3   306  ARG306      0.2205
    146  NE        32.1050  104.6510   38.1520 N.pl3 306  ARG306     -0.0865
    147  CZ        32.1190  103.7270   39.1060 C.cat 306  ARG306      0.5346
    148  NH1       32.2390  104.0740   40.3840 N.pl3 306  ARG306      0.1354
    149  NH2       31.9860  102.4560   38.7790 N.pl3 306  ARG306      0.1354
    150  N         38.3230  111.2380   37.4360 N.3   309  HIS309     -0.1241
    151  CA        37.5670  112.0710   36.5100 C.3   309  HIS309      0.1621
    152  C         37.1150  113.4390   37.0110 C.2   309  HIS309      0.2264
    153  O         37.4490  114.4600   36.3970 O.2   309  HIS309     -0.2867
    154  CB        36.3700  111.2770   35.9730 C.3   309  HIS309      0.0745
    155  CG        36.7620  110.1320   35.0860 C.ar  309  HIS309      0.0817
    156  ND1       37.4320  109.0210   35.5550 N.ar  309  HIS309     -0.2268
    157  CD2       36.6370  109.9580   33.7480 C.ar  309  HIS309      0.1154
    158  CE1       37.7040  108.2150   34.5450 C.ar  309  HIS309      0.1986
    159  NE2       37.2330  108.7610   33.4380 N.ar  309  HIS309     -0.2212
@<TRIPOS>BOND
     1    10     9   ar
     2    10     8   ar
     3     9     7   ar
     4    86    85    2
     5     8     6   ar
     6     7     6   ar
     7    85    84    1
     8     6     5    1
     9    84    87    1
    10    84    83    1
    11    88    87    1
    12    88    89    1
    13     5     2    1
    14    94    95    1
    15   130   129    2
    16   129   128    1
    17     1     2    1
    18    90    89    1
    19    90    91    2
    20     2     3    1
    21    93    91    1
    22    91    92    1
    23    81    80   ar
    24   128   131    1
    25   128   127    1
    26    95    98    1
    27    95    96    1
    28    97    96    2
    29    77    76    2
    30    98    99    1
    31   131   132    1
    32     3    11   am
    33     3     4    2
    34    18    16    1
    35    80    82   ar
    36    80    79    1
    37   127   133    1
    38    11    12    1
    39    76    75    1
    40    70    69    2
    41   132   133    1
    42    99   100    1
    43    79    78    1
    44    16    15    1
    45    75    78    1
    46    75    74    1
    47   100   101    1
    48    12    15    1
    49    12    13    1
    50    14    13    2
    51    69    74   am
    52    69    68    1
    53    15    17    1
    54    13    19   am
    55    73    71    1
    56   159   157   ar
    57   159   158   ar
    58    68    71    1
    59    68    67    1
    60   101   102    1
    61   157   155   ar
    62    61    60    2
    63    71    72    1
    64   122   121    2
    65    26    24    1
    66    19    20    1
    67    57    56    2
    68   158   156   ar
    69    67    60   am
    70    60    59    1
    71    24    23    1
    72   121   120    1
    73   155   156   ar
    74   155   154    1
    75    20    23    1
    76    20    21    1
    77   103   104    1
    78    56    55    1
    79    56    58   am
    80   120   119    1
    81   120   123    1
    82   107   104    1
    83   107   108    1
    84   125   123    1
    85    30    29    2
    86    23    25    1
    87   154   151    1
    88    55    54    1
    89    21    22    2
    90    59    58    1
    91    59    62    1
    92   104   105    1
    93   153   152    2
    94   108   109   ar
    95   108   110   ar
    96   123   124    1
    97   151   152    1
    98   151   150    1
    99    29    28    1
   100   124   126    1
   101    62    63    1
   102    31    28    1
   103    31    32    1
   104    54    49   am
   105   105   106    2
   106    28    27    1
   107    50    49    2
   108   144   145    1
   109   144   143    1
   110   146   145    1
   111   146   147    2
   112    49    48    1
   113    32    33    1
   114   142   141    2
   115    63    64    1
   116   149   147    1
   117   140   143    1
   118   140   141    1
   119   140   139    1
   120   137   136    2
   121   147   148    1
   122   138   135    1
   123   139   136   am
   124   136   135    1
   125    48    47    1
   126    48    51    1
   127    64    65    1
   128    47    45   am
   129    33    34    2
   130    33    35   am
   131   118   116    1
   132   135   134    1
   133    65    66    1
   134    45    44    1
   135    45    46    2
   136    44    43    1
   137    53    51    1
   138    51    52    1
   139   116   117    1
   140   116   115    1
   141    43    38   am
   142   115   112    1
   143    41    40    1
   144    38    37    1
   145    38    39    2
   146    37    40    1
   147    37    36    1
   148    40    42    1
   149   112   111    1
   150   112   113    1
   151   113   114    2
