@<TRIPOS>MOLECULE
tmp/1g4iA00.pdb
 138 135 0 0 0
SMALL
GASTEIGER

@<TRIPOS>ATOM
      1  N         10.9160   15.3900   31.2700 N.3     2  LEU2       -0.1245
      2  CA        10.2480   15.0730   30.0110 C.3     2  LEU2        0.1561
      3  C          9.4600   16.2530   29.5130 C.2     2  LEU2        0.2260
      4  O          9.3980   16.4980   28.2890 O.2     2  LEU2       -0.2867
      5  CB         9.3700   13.8270   30.1720 C.3     2  LEU2        0.0270
      6  CG         8.7850   13.2950   28.9330 C.3     2  LEU2        0.0019
      7  CD1        9.8400   12.9070   27.9160 C.3     2  LEU2        0.0001
      8  CD2        7.9380   12.0790   29.2410 C.3     2  LEU2        0.0001
      9  N         11.7180   18.6290   27.5920 N.3     5  PHE5       -0.1227
     10  CA        12.2440   18.0200   26.3660 C.3     5  PHE5        0.1736
     11  C         11.1520   17.9730   25.3020 C.2     5  PHE5        0.2595
     12  O         11.3880   18.3050   24.1340 O.2     5  PHE5       -0.2718
     13  CB        12.8410   16.6720   26.6870 C.3     5  PHE5        0.0547
     14  CG        13.5230   15.9610   25.5520 C.ar    5  PHE5       -0.0202
     15  CD1       14.1770   16.6300   24.5300 C.ar    5  PHE5       -0.0042
     16  CD2       13.5630   14.5710   25.5460 C.ar    5  PHE5       -0.0042
     17  CE1       14.8470   15.9420   23.5270 C.ar    5  PHE5       -0.0003
     18  CE2       14.2170   13.8780   24.5710 C.ar    5  PHE5       -0.0003
     19  CZ        14.8780   14.5650   23.5500 C.ar    5  PHE5       -0.0000
     20  N          9.9580   17.5430   25.6780 N.am    6  ASN6       -0.1974
     21  CA         8.8560   17.5180   24.7340 C.3     6  ASN6        0.1688
     22  C          8.5960   18.9080   24.1830 C.2     6  ASN6        0.2292
     23  O          8.3450   19.0830   22.9630 O.2     6  ASN6       -0.2864
     24  CB         7.6300   16.8040   25.3040 C.3     6  ASN6        0.1181
     25  CG         7.9140   15.3100   25.4720 C.2     6  ASN6        0.2629
     26  OD1        8.8760   14.7160   25.0230 O.2     6  ASN6       -0.2716
     27  ND2        6.9840   14.7650   26.1800 N.am    6  ASN6       -0.0877
     28  N         11.2000   19.7200   21.5640 N.3     9  ILE9       -0.1245
     29  CA        10.9760   19.0550   20.2910 C.3     9  ILE9        0.1561
     30  C          9.9060   19.7970   19.5160 C.2     9  ILE9        0.2260
     31  O         10.0390   19.9940   18.2990 O.2     9  ILE9       -0.2867
     32  CB        10.6650   17.5700   20.4990 C.3     9  ILE9        0.0252
     33  CG1       11.8520   16.8720   21.1980 C.3     9  ILE9        0.0019
     34  CG2       10.3720   16.9150   19.1510 C.3     9  ILE9        0.0019
     35  CD1       11.4410   15.5260   21.8120 C.3     9  ILE9        0.0001
     36  N          5.4320   14.8950   20.1350 N.3    18  PRO18      -0.2102
     37  CA         6.5940   14.0000   20.4050 C.3    18  PRO18       0.1504
     38  C          6.3160   12.7690   21.1920 C.2    18  PRO18       0.2575
     39  O          6.9130   11.7120   20.9780 O.2    18  PRO18      -0.2718
     40  CB         7.5490   14.8950   21.1830 C.3    18  PRO18       0.0282
     41  CG         7.1860   16.2840   20.7630 C.3    18  PRO18       0.0208
     42  CD         5.6960   16.2640   20.5290 C.3    18  PRO18       0.0893
     43  N          5.3910   12.9490   22.1320 N.am   19  LEU19      -0.1980
     44  CA         5.1130   11.8110   22.9700 C.3    19  LEU19       0.1596
     45  C          4.3720   10.7260   22.2230 C.2    19  LEU19       0.2287
     46  O          4.1860    9.6400   22.7510 O.2    19  LEU19      -0.2864
     47  CB         4.2470   12.2570   24.1240 C.3    19  LEU19       0.0297
     48  CG         4.9190   12.9740   25.2130 C.3    19  LEU19       0.0022
     49  CD1        4.0010   13.8640   26.0690 C.3    19  LEU19       0.0001
     50  CD2        5.4960   11.8430   26.1040 C.3    19  LEU19       0.0001
     51  N          7.8550   10.3470   18.4500 N.3    22  PHE22      -0.1227
     52  CA         9.2870    9.9730   18.6190 C.3    22  PHE22       0.1736
     53  C          9.4230    8.8560   19.6300 C.2    22  PHE22       0.2595
     54  O         10.4540    8.2040   19.6770 O.2    22  PHE22      -0.2718
     55  CB        10.0990   11.1670   19.1280 C.3    22  PHE22       0.0547
     56  CG        10.2020   12.0950   17.9710 C.ar   22  PHE22      -0.0202
     57  CD1       11.0340   11.7820   16.9050 C.ar   22  PHE22      -0.0042
     58  CD2        9.5070   13.2700   17.9370 C.ar   22  PHE22      -0.0042
     59  CE1       11.1150   12.5970   15.7950 C.ar   22  PHE22      -0.0003
     60  CE2        9.5990   14.0940   16.8540 C.ar   22  PHE22      -0.0003
     61  CZ        10.3980   13.7640   15.7950 C.ar   22  PHE22      -0.0000
     62  N          8.4840    8.6220   20.5240 N.am   23  ASN23      -0.1974
     63  CA         8.6450    7.5800   21.5320 C.3    23  ASN23       0.1688
     64  C          8.5050    6.2210   20.8430 C.2    23  ASN23       0.2292
     65  O          7.6480    6.1140   19.9410 O.2    23  ASN23      -0.2864
     66  CB         7.6890    7.6790   22.6700 C.3    23  ASN23       0.1181
     67  CG         8.1180    6.9290   23.9170 C.2    23  ASN23       0.2629
     68  OD1        9.2570    6.5360   24.0220 O.2    23  ASN23      -0.2716
     69  ND2        7.1870    6.7890   24.8390 N.am   23  ASN23      -0.0877
     70  N         15.0490    5.4930   20.5280 N.3    29  CYS29      -0.1221
     71  CA        14.1410    6.5680   20.9200 C.3    29  CYS29       0.1808
     72  C         13.0340    5.9930   21.8160 C.2    29  CYS29       0.2601
     73  O         12.1360    5.2920   21.3550 O.2    29  CYS29      -0.2717
     74  CB        13.4770    7.2370   19.7310 C.3    29  CYS29       0.0970
     75  SG        14.6160    7.8910   18.4750 S.3    29  CYS29      -0.0800
     76  N         13.1800    6.2780   23.0800 N.am   30  GLY30      -0.1957
     77  CA        12.3220    5.7720   24.1460 C.3    30  GLY30       0.1869
     78  C         13.1180    4.9960   25.1730 C.2    30  GLY30       0.2309
     79  O         14.3540    5.0460   25.2560 O.2    30  GLY30      -0.2863
     80  N         18.7670    9.7750   18.9730 N.3    45  CYS45      -0.1235
     81  CA        18.3300    9.2110   20.2670 C.3    45  CYS45       0.1677
     82  C         19.4590    8.4830   20.9850 C.2    45  CYS45       0.2270
     83  O         19.5180    8.5370   22.2190 O.2    45  CYS45      -0.2867
     84  CB        17.1450    8.2810   20.0450 C.3    45  CYS45       0.0956
     85  SG        15.7030    9.2480   19.5150 S.3    45  CYS45      -0.0801
     86  N         21.5510   11.1250   22.5530 N.3    48  HIS48      -0.1226
     87  CA        20.8290   11.6680   23.7080 C.3    48  HIS48       0.1752
     88  C         20.9030   10.7310   24.9050 C.2    48  HIS48       0.2596
     89  O         21.1680   11.1430   26.0300 O.2    48  HIS48      -0.2718
     90  CB        19.4100   11.9700   23.2740 C.3    48  HIS48       0.0759
     91  CG        18.5680   12.5860   24.3520 C.ar   48  HIS48       0.0818
     92  ND1       17.6380   11.8460   25.0410 N.ar   48  HIS48      -0.2268
     93  CD2       18.5470   13.8690   24.8070 C.ar   48  HIS48       0.1154
     94  CE1       17.0720   12.6900   25.8980 C.ar   48  HIS48       0.1986
     95  NE2       17.5810   13.9130   25.7870 N.ar   48  HIS48      -0.2212
     96  N         20.6780    9.4250   24.6600 N.am   49  ASP49      -0.1974
     97  CA        20.8420    8.4410   25.7260 C.3    49  ASP49       0.1709
     98  C         22.2450    8.5460   26.3120 C.2    49  ASP49       0.2293
     99  O         22.4200    8.4840   27.5550 O.2    49  ASP49      -0.2864
    100  CB        20.6260    7.0220   25.2060 C.3    49  ASP49       0.1436
    101  CG        19.2180    6.5980   24.8980 C.2    49  ASP49       0.3671
    102  OD1       18.2630    7.4030   24.9830 O.co2  49  ASP49      -0.2456
    103  OD2       19.0210    5.4000   24.5620 O.co2  49  ASP49      -0.2456
    104  N         22.6430   11.6150   28.5370 N.3    52  TYR52      -0.1241
    105  CA        22.1310   11.3520   29.8870 C.3    52  TYR52       0.1605
    106  C         23.0900   10.4950   30.7070 C.2    52  TYR52       0.2264
    107  O         23.2380   10.7400   31.9040 O.2    52  TYR52      -0.2867
    108  CB        20.7480   10.7580   29.8500 C.3    52  TYR52       0.0534
    109  CG        19.6070   11.7510   29.6240 C.ar   52  TYR52      -0.0201
    110  CD1       19.8220   13.0450   29.1360 C.ar   52  TYR52      -0.0009
    111  CD2       18.3310   11.3610   29.9030 C.ar   52  TYR52      -0.0009
    112  CE1       18.7810   13.9090   28.9570 C.ar   52  TYR52       0.0417
    113  CE2       17.2620   12.2330   29.7160 C.ar   52  TYR52       0.0417
    114  CZ        17.5020   13.5310   29.2430 C.ar   52  TYR52       0.1957
    115  OH        16.4190   14.3310   29.0330 O.3    52  TYR52      -0.2866
    116  N         16.3190   12.4130   34.0870 N.3    69  TYR69      -0.1241
    117  CA        14.9670   12.2860   33.6720 C.3    69  TYR69       0.1605
    118  C         14.0150   13.2560   34.3840 C.2    69  TYR69       0.2264
    119  O         12.9440   13.5320   33.8300 O.2    69  TYR69      -0.2867
    120  CB        14.4260   10.8490   33.9240 C.3    69  TYR69       0.0534
    121  CG        15.1000    9.8030   33.1400 C.ar   69  TYR69      -0.0201
    122  CD1       15.1840    9.8390   31.7680 C.ar   69  TYR69      -0.0009
    123  CD2       15.6540    8.7170   33.7530 C.ar   69  TYR69      -0.0009
    124  CE1       15.8160    8.8620   31.0190 C.ar   69  TYR69       0.0417
    125  CE2       16.2870    7.7100   33.0310 C.ar   69  TYR69       0.0417
    126  CZ        16.3580    7.8260   31.6740 C.ar   69  TYR69       0.1957
    127  OH        16.9670    6.8300   30.9430 O.3    69  TYR69      -0.2866
    128  N         16.7100   15.9190   15.8840 N.3   106  PHE106     -0.1241
    129  CA        15.4850   15.3510   15.3540 C.3   106  PHE106      0.1605
    130  C         14.9410   16.1710   14.1930 C.2   106  PHE106      0.2264
    131  O         14.3990   15.6350   13.2380 O.2   106  PHE106     -0.2867
    132  CB        14.3790   15.3170   16.4440 C.3   106  PHE106      0.0534
    133  CG        14.5970   14.3920   17.6030 C.ar  106  PHE106     -0.0203
    134  CD1       15.7000   13.5840   17.7970 C.ar  106  PHE106     -0.0042
    135  CD2       13.6270   14.3460   18.5710 C.ar  106  PHE106     -0.0042
    136  CE1       15.8460   12.7740   18.9150 C.ar  106  PHE106     -0.0003
    137  CE2       13.7560   13.5420   19.6700 C.ar  106  PHE106     -0.0003
    138  CZ        14.8900   12.7730   19.8640 C.ar  106  PHE106     -0.0000
@<TRIPOS>BOND
     1   131   130    2
     2   130   129    1
     3   129   128    1
     4   129   132    1
     5    61    59   ar
     6    61    60   ar
     7    59    57   ar
     8   132   133    1
     9    60    58   ar
    10    57    56   ar
    11   133   134   ar
    12   133   135   ar
    13   134   136   ar
    14    58    56   ar
    15    56    55    1
    16    31    30    2
    17    51    52    1
    18    75    85    1
    19    75    74    1
    20   135   137   ar
    21    52    55    1
    22    52    53    1
    23   136   138   ar
    24    80    81    1
    25    34    32    1
    26    85    84    1
    27    30    29    1
    28    53    54    2
    29    53    62   am
    30   137   138   ar
    31    74    71    1
    32    65    64    2
    33    84    81    1
    34    36    37    1
    35    36    42    1
    36    81    82    1
    37    29    32    1
    38    29    28    1
    39    37    40    1
    40    37    38    1
    41    32    33    1
    42    62    63    1
    43    70    71    1
    44    42    41    1
    45    41    40    1
    46    64    63    1
    47    71    72    1
    48    39    38    2
    49    82    83    2
    50    38    43   am
    51    33    35    1
    52    73    72    2
    53    63    66    1
    54    72    76   am
    55    43    44    1
    56    45    46    2
    57    45    44    1
    58    86    87    1
    59    66    67    1
    60    23    22    2
    61    44    47    1
    62    76    77    1
    63    90    87    1
    64    90    91    1
    65    17    19   ar
    66    17    15   ar
    67    19    18   ar
    68    87    88    1
    69    67    68    2
    70    67    69   am
    71    47    48    1
    72    12    11    2
    73    77    78    1
    74    22    21    1
    75    91    93   ar
    76    91    92   ar
    77    15    14   ar
    78   103   101   ar
    79    18    16   ar
    80    96    88   am
    81    96    97    1
    82    21    24    1
    83    21    20    1
    84    93    95   ar
    85   101   102   ar
    86   101   100    1
    87    88    89    2
    88    26    25    2
    89    92    94   ar
    90    78    79    2
    91   100    97    1
    92    48    49    1
    93    48    50    1
    94    11    20   am
    95    11    10    1
    96    24    25    1
    97    25    27   am
    98    16    14   ar
    99    14    13    1
   100    97    98    1
   101    95    94   ar
   102    98    99    2
   103    10    13    1
   104    10     9    1
   105     7     6    1
   106     4     3    2
   107   104   105    1
   108     6     8    1
   109     6     5    1
   110   112   110   ar
   111   112   114   ar
   112   115   114    1
   113   110   109   ar
   114   114   113   ar
   115     3     2    1
   116   109   108    1
   117   109   111   ar
   118   113   111   ar
   119   108   105    1
   120   105   106    1
   121     2     5    1
   122     2     1    1
   123   106   107    2
   124   127   126    1
   125   124   126   ar
   126   124   122   ar
   127   126   125   ar
   128   122   121   ar
   129   125   123   ar
   130   121   123   ar
   131   121   120    1
   132   117   120    1
   133   117   116    1
   134   117   118    1
   135   119   118    2
