@<TRIPOS>MOLECULE
tmp/1g4iA02.pdb
 89 85 0 0 0
SMALL
GASTEIGER

@<TRIPOS>ATOM
      1  N         10.9160   15.3900   31.2700 N.3     2  LEU2       -0.1245
      2  CA        10.2480   15.0730   30.0110 C.3     2  LEU2        0.1561
      3  C          9.4600   16.2530   29.5130 C.2     2  LEU2        0.2260
      4  O          9.3980   16.4980   28.2890 O.2     2  LEU2       -0.2867
      5  CB         9.3700   13.8270   30.1720 C.3     2  LEU2        0.0270
      6  CG         8.7850   13.2950   28.9330 C.3     2  LEU2        0.0019
      7  CD1        9.8400   12.9070   27.9160 C.3     2  LEU2        0.0001
      8  CD2        7.9380   12.0790   29.2410 C.3     2  LEU2        0.0001
      9  N         11.7180   18.6290   27.5920 N.3     5  PHE5       -0.1241
     10  CA        12.2440   18.0200   26.3660 C.3     5  PHE5        0.1605
     11  C         11.1520   17.9730   25.3020 C.2     5  PHE5        0.2264
     12  O         11.3880   18.3050   24.1340 O.2     5  PHE5       -0.2867
     13  CB        12.8410   16.6720   26.6870 C.3     5  PHE5        0.0534
     14  CG        13.5230   15.9610   25.5520 C.ar    5  PHE5       -0.0203
     15  CD1       14.1770   16.6300   24.5300 C.ar    5  PHE5       -0.0042
     16  CD2       13.5630   14.5710   25.5460 C.ar    5  PHE5       -0.0042
     17  CE1       14.8470   15.9420   23.5270 C.ar    5  PHE5       -0.0003
     18  CE2       14.2170   13.8780   24.5710 C.ar    5  PHE5       -0.0003
     19  CZ        14.8780   14.5650   23.5500 C.ar    5  PHE5       -0.0000
     20  N          5.3910   12.9490   22.1320 N.3    19  LEU19      -0.1245
     21  CA         5.1130   11.8110   22.9700 C.3    19  LEU19       0.1561
     22  C          4.3720   10.7260   22.2230 C.2    19  LEU19       0.2260
     23  O          4.1860    9.6400   22.7510 O.2    19  LEU19      -0.2867
     24  CB         4.2470   12.2570   24.1240 C.3    19  LEU19       0.0270
     25  CG         4.9190   12.9740   25.2130 C.3    19  LEU19       0.0019
     26  CD1        4.0010   13.8640   26.0690 C.3    19  LEU19       0.0001
     27  CD2        5.4960   11.8430   26.1040 C.3    19  LEU19       0.0001
     28  N          8.4840    8.6220   20.5240 N.3    23  ASN23      -0.1240
     29  CA         8.6450    7.5800   21.5320 C.3    23  ASN23       0.1653
     30  C          8.5050    6.2210   20.8430 C.2    23  ASN23       0.2266
     31  O          7.6480    6.1140   19.9410 O.2    23  ASN23      -0.2867
     32  CB         7.6890    7.6790   22.6700 C.3    23  ASN23       0.1155
     33  CG         8.1180    6.9290   23.9170 C.2    23  ASN23       0.2627
     34  OD1        9.2570    6.5360   24.0220 O.2    23  ASN23      -0.2716
     35  ND2        7.1870    6.7890   24.8390 N.am   23  ASN23      -0.0877
     36  N         13.1800    6.2780   23.0800 N.3    30  GLY30      -0.1210
     37  CA        12.3220    5.7720   24.1460 C.3    30  GLY30       0.1956
     38  C         13.1180    4.9960   25.1730 C.2    30  GLY30       0.2611
     39  O         14.3540    5.0460   25.2560 O.2    30  GLY30      -0.2717
     40  N         12.3660    4.2580   25.9950 N.am   31  LEU31      -0.1979
     41  CA        12.9720    3.4870   27.0560 C.3    31  LEU31       0.1596
     42  C         14.0120    2.5380   26.4600 C.2    31  LEU31       0.2287
     43  O         13.8710    1.9490   25.3930 O.2    31  LEU31      -0.2864
     44  CB        11.9570    2.6870   27.8550 C.3    31  LEU31       0.0297
     45  CG        10.9040    3.4810   28.5850 C.3    31  LEU31       0.0022
     46  CD1        9.8220    2.4910   29.0600 C.3    31  LEU31       0.0001
     47  CD2       11.4600    4.3780   29.7170 C.3    31  LEU31       0.0001
     48  N         21.5510   11.1250   22.5530 N.3    48  HIS48      -0.1226
     49  CA        20.8290   11.6680   23.7080 C.3    48  HIS48       0.1752
     50  C         20.9030   10.7310   24.9050 C.2    48  HIS48       0.2596
     51  O         21.1680   11.1430   26.0300 O.2    48  HIS48      -0.2718
     52  CB        19.4100   11.9700   23.2740 C.3    48  HIS48       0.0759
     53  CG        18.5680   12.5860   24.3520 C.ar   48  HIS48       0.0818
     54  ND1       17.6380   11.8460   25.0410 N.ar   48  HIS48      -0.2268
     55  CD2       18.5470   13.8690   24.8070 C.ar   48  HIS48       0.1154
     56  CE1       17.0720   12.6900   25.8980 C.ar   48  HIS48       0.1986
     57  NE2       17.5810   13.9130   25.7870 N.ar   48  HIS48      -0.2212
     58  N         20.6780    9.4250   24.6600 N.am   49  ASP49      -0.1974
     59  CA        20.8420    8.4410   25.7260 C.3    49  ASP49       0.1709
     60  C         22.2450    8.5460   26.3120 C.2    49  ASP49       0.2293
     61  O         22.4200    8.4840   27.5550 O.2    49  ASP49      -0.2864
     62  CB        20.6260    7.0220   25.2060 C.3    49  ASP49       0.1436
     63  CG        19.2180    6.5980   24.8980 C.2    49  ASP49       0.3671
     64  OD1       18.2630    7.4030   24.9830 O.co2  49  ASP49      -0.2456
     65  OD2       19.0210    5.4000   24.5620 O.co2  49  ASP49      -0.2456
     66  N         22.6430   11.6150   28.5370 N.3    52  TYR52      -0.1241
     67  CA        22.1310   11.3520   29.8870 C.3    52  TYR52       0.1605
     68  C         23.0900   10.4950   30.7070 C.2    52  TYR52       0.2264
     69  O         23.2380   10.7400   31.9040 O.2    52  TYR52      -0.2867
     70  CB        20.7480   10.7580   29.8500 C.3    52  TYR52       0.0534
     71  CG        19.6070   11.7510   29.6240 C.ar   52  TYR52      -0.0201
     72  CD1       19.8220   13.0450   29.1360 C.ar   52  TYR52      -0.0009
     73  CD2       18.3310   11.3610   29.9030 C.ar   52  TYR52      -0.0009
     74  CE1       18.7810   13.9090   28.9570 C.ar   52  TYR52       0.0417
     75  CE2       17.2620   12.2330   29.7160 C.ar   52  TYR52       0.0417
     76  CZ        17.5020   13.5310   29.2430 C.ar   52  TYR52       0.1957
     77  OH        16.4190   14.3310   29.0330 O.3    52  TYR52      -0.2866
     78  N         16.3190   12.4130   34.0870 N.3    69  TYR69      -0.1241
     79  CA        14.9670   12.2860   33.6720 C.3    69  TYR69       0.1605
     80  C         14.0150   13.2560   34.3840 C.2    69  TYR69       0.2264
     81  O         12.9440   13.5320   33.8300 O.2    69  TYR69      -0.2867
     82  CB        14.4260   10.8490   33.9240 C.3    69  TYR69       0.0534
     83  CG        15.1000    9.8030   33.1400 C.ar   69  TYR69      -0.0201
     84  CD1       15.1840    9.8390   31.7680 C.ar   69  TYR69      -0.0009
     85  CD2       15.6540    8.7170   33.7530 C.ar   69  TYR69      -0.0009
     86  CE1       15.8160    8.8620   31.0190 C.ar   69  TYR69       0.0417
     87  CE2       16.2870    7.7100   33.0310 C.ar   69  TYR69       0.0417
     88  CZ        16.3580    7.8260   31.6740 C.ar   69  TYR69       0.1957
     89  OH        16.9670    6.8300   30.9430 O.3    69  TYR69      -0.2866
@<TRIPOS>BOND
     1    31    30    2
     2    28    29    1
     3    30    29    1
     4    29    32    1
     5    20    21    1
     6    22    23    2
     7    22    21    1
     8    48    49    1
     9    32    33    1
    10    21    24    1
    11    36    37    1
    12    52    49    1
    13    52    53    1
    14    17    19   ar
    15    17    15   ar
    16    19    18   ar
    17    49    50    1
    18    33    34    2
    19    33    35   am
    20    24    25    1
    21    12    11    2
    22    37    38    1
    23    53    55   ar
    24    53    54   ar
    25    15    14   ar
    26    65    63   ar
    27    18    16   ar
    28    58    50   am
    29    58    59    1
    30    55    57   ar
    31    63    64   ar
    32    63    62    1
    33    50    51    2
    34    54    56   ar
    35    38    39    2
    36    38    40   am
    37    62    59    1
    38    25    26    1
    39    25    27    1
    40    11    10    1
    41    43    42    2
    42    16    14   ar
    43    14    13    1
    44    59    60    1
    45    57    56   ar
    46    40    41    1
    47    60    61    2
    48    10    13    1
    49    10     9    1
    50    42    41    1
    51    41    44    1
    52    44    45    1
    53     7     6    1
    54     4     3    2
    55    66    67    1
    56    45    46    1
    57    45    47    1
    58     6     8    1
    59     6     5    1
    60    74    72   ar
    61    74    76   ar
    62    77    76    1
    63    72    71   ar
    64    76    75   ar
    65     3     2    1
    66    71    70    1
    67    71    73   ar
    68    75    73   ar
    69    70    67    1
    70    67    68    1
    71     2     5    1
    72     2     1    1
    73    68    69    2
    74    89    88    1
    75    86    88   ar
    76    86    84   ar
    77    88    87   ar
    78    84    83   ar
    79    87    85   ar
    80    83    85   ar
    81    83    82    1
    82    79    82    1
    83    79    78    1
    84    79    80    1
    85    81    80    2
