@<TRIPOS>MOLECULE
tmp/1g4jA01.pdb
 116 108 0 0 0
SMALL
GASTEIGER

@<TRIPOS>ATOM
      1  N        -16.6210    7.3600    3.0480 N.3    55  LEU55      -0.1245
      2  CA       -16.0710    7.9820    1.8600 C.3    55  LEU55       0.1561
      3  C        -15.1420    7.1110    1.0380 C.2    55  LEU55       0.2260
      4  O        -15.2940    6.9730   -0.1820 O.2    55  LEU55      -0.2867
      5  CB       -15.2730    9.2220    2.2640 C.3    55  LEU55       0.0270
      6  CG       -15.9470   10.3380    3.0640 C.3    55  LEU55       0.0019
      7  CD1      -14.9170   11.3580    3.5020 C.3    55  LEU55       0.0001
      8  CD2      -16.9980   10.9860    2.2190 C.3    55  LEU55       0.0001
      9  N         -8.5300    0.4670    5.9300 N.3    65  ASN65      -0.1240
     10  CA        -9.3490    1.3960    6.6870 C.3    65  ASN65       0.1653
     11  C        -10.5270    1.8740    5.8490 C.2    65  ASN65       0.2266
     12  O        -10.3900    2.0920    4.6440 O.2    65  ASN65      -0.2867
     13  CB        -8.5350    2.6470    7.0540 C.3    65  ASN65       0.1155
     14  CG        -7.3910    2.3800    8.0260 C.2    65  ASN65       0.2627
     15  OD1       -6.6110    3.2910    8.3120 O.2    65  ASN65      -0.2716
     16  ND2       -7.2810    1.1660    8.5390 N.am   65  ASN65      -0.0877
     17  N        -12.7990    5.0000    5.6940 N.3    67  GLU67      -0.1231
     18  CA       -12.7990    6.3640    6.2140 C.3    67  GLU67       0.1699
     19  C        -14.1680    7.0240    6.1480 C.2    67  GLU67       0.2592
     20  O        -14.9400    6.7930    5.2070 O.2    67  GLU67      -0.2718
     21  CB       -11.8050    7.2020    5.4330 C.3    67  GLU67       0.0402
     22  CG       -10.4080    6.6600    5.4780 C.3    67  GLU67       0.1161
     23  CD        -9.5090    7.2960    4.4390 C.2    67  GLU67       0.3649
     24  OE1      -10.0280    7.8720    3.4700 O.co2  67  GLU67      -0.2457
     25  OE2       -8.2820    7.2020    4.5760 O.co2  67  GLU67      -0.2457
     26  N        -14.4530    7.8570    7.1400 N.am   68  PHE68      -0.1962
     27  CA       -15.7260    8.5540    7.2180 C.3    68  PHE68       0.1771
     28  C        -15.5120   10.0540    7.2810 C.2    68  PHE68       0.2620
     29  O        -14.4730   10.5320    7.7410 O.2    68  PHE68      -0.2715
     30  CB       -16.4920    8.1350    8.4820 C.3    68  PHE68       0.0574
     31  CG       -17.0470    6.7420    8.4240 C.ar   68  PHE68      -0.0200
     32  CD1      -16.2240    5.6410    8.6490 C.ar   68  PHE68      -0.0042
     33  CD2      -18.3910    6.5270    8.1200 C.ar   68  PHE68      -0.0042
     34  CE1      -16.7230    4.3500    8.5690 C.ar   68  PHE68      -0.0003
     35  CE2      -18.9040    5.2370    8.0350 C.ar   68  PHE68      -0.0003
     36  CZ       -18.0650    4.1420    8.2600 C.ar   68  PHE68      -0.0000
     37  N        -16.5120   10.7890    6.8220 N.am   69  ASP69      -0.1957
     38  CA       -16.4950   12.2370    6.8790 C.3    69  ASP69       0.1840
     39  C        -16.7240   12.6170    8.3590 C.2    69  ASP69       0.2622
     40  O        -17.8060   12.4020    8.8980 O.2    69  ASP69      -0.2715
     41  CB       -17.6330   12.7760    6.0110 C.3    69  ASP69       0.1450
     42  CG       -17.8640   14.2690    6.1900 C.2    69  ASP69       0.3671
     43  OD1      -17.0020   14.9650    6.7590 O.co2  69  ASP69      -0.2456
     44  OD2      -18.9250   14.7520    5.7530 O.co2  69  ASP69      -0.2456
     45  N        -15.7180   13.2060    8.9950 N.am   70  ASP70      -0.1957
     46  CA       -15.8280   13.5930   10.3950 C.3    70  ASP70       0.1840
     47  C        -15.8160   15.1150   10.5790 C.2    70  ASP70       0.2622
     48  O        -15.3680   15.6160   11.6080 O.2    70  ASP70      -0.2715
     49  CB       -14.6830   12.9430   11.2020 C.3    70  ASP70       0.1450
     50  CG       -13.3020   13.5310   10.8710 C.2    70  ASP70       0.3671
     51  OD1      -13.1410   14.1880    9.8300 O.co2  70  ASP70      -0.2456
     52  OD2      -12.3650   13.3570   11.6710 O.co2  70  ASP70      -0.2456
     53  N        -16.2840   15.8500    9.5750 N.am   71  SER71      -0.1950
     54  CA       -16.2920   17.3090    9.6550 C.3    71  SER71       0.1924
     55  C        -17.4230   17.8370   10.5270 C.2    71  SER71       0.2314
     56  O        -17.4170   19.0050   10.9170 O.2    71  SER71      -0.2863
     57  CB       -16.3730   17.9290    8.2560 C.3    71  SER71       0.2116
     58  OG       -17.5560   17.5390    7.5770 O.3    71  SER71      -0.2180
     59  N        -14.0820    8.3020   12.8580 N.3    89  ILE89      -0.1231
     60  CA       -13.2300    8.7690   11.7680 C.3    89  ILE89       0.1692
     61  C        -12.9120    7.6210   10.8000 C.2    89  ILE89       0.2591
     62  O        -12.8750    7.8180    9.5770 O.2    89  ILE89      -0.2718
     63  CB       -11.9350    9.4670   12.2920 C.3    89  ILE89       0.0266
     64  CG1      -11.0730    9.9340   11.1170 C.3    89  ILE89       0.0019
     65  CG2      -11.1440    8.5480   13.1740 C.3    89  ILE89       0.0020
     66  CD1       -9.8410   10.6900   11.5280 C.3    89  ILE89       0.0001
     67  N        -12.7140    6.4170   11.3430 N.am   90  GLN90      -0.1979
     68  CA       -12.4220    5.2440   10.5170 C.3    90  GLN90       0.1601
     69  C        -12.5980    3.9250   11.2610 C.2    90  GLN90       0.2287
     70  O        -12.6890    3.9080   12.4900 O.2    90  GLN90      -0.2864
     71  CB       -10.9740    5.3110   10.0070 C.3    90  GLN90       0.0394
     72  CG        -9.9010    5.4050   11.1090 C.3    90  GLN90       0.0908
     73  CD        -9.1350    4.0990   11.3400 C.2    90  GLN90       0.2608
     74  OE1       -9.7060    3.0090   11.3040 O.2    90  GLN90      -0.2717
     75  NE2       -7.8360    4.2110   11.5860 N.am   90  GLN90      -0.0878
     76  N        -12.8160    3.5970   15.3000 N.3   119  VAL119     -0.1245
     77  CA       -12.0250    4.6590   15.9000 C.3   119  VAL119      0.1561
     78  C        -12.7470    5.9990   15.9380 C.2   119  VAL119      0.2260
     79  O        -13.2370    6.4690   14.9020 O.2   119  VAL119     -0.2867
     80  CB       -10.6710    4.7980   15.1400 C.3   119  VAL119      0.0252
     81  CG1       -9.7390    5.7650   15.8630 C.3   119  VAL119      0.0019
     82  CG2      -10.0190    3.4410   14.9930 C.3   119  VAL119      0.0019
     83  N         -8.2510   15.4270   14.9450 N.3   128  VAL128     -0.1231
     84  CA        -7.6610   14.1730   15.4020 C.3   128  VAL128      0.1692
     85  C         -6.2290   14.3290   15.8380 C.2   128  VAL128      0.2592
     86  O         -5.8090   13.6980   16.8020 O.2   128  VAL128     -0.2718
     87  CB        -7.7220   13.0540   14.3550 C.3   128  VAL128      0.0266
     88  CG1       -7.9320   11.7260   15.0560 C.3   128  VAL128      0.0020
     89  CG2       -8.8080   13.2940   13.3760 C.3   128  VAL128      0.0020
     90  N         -5.4780   15.1560   15.1170 N.am  129  GLY129     -0.1957
     91  CA        -4.0840   15.4000   15.4530 C.3   129  GLY129      0.1869
     92  C         -3.9040   15.9110   16.8780 C.2   129  GLY129      0.2309
     93  O         -2.9760   15.4940   17.5660 O.2   129  GLY129     -0.2863
     94  N         -4.9060   13.0470   19.6950 N.3   132  VAL132     -0.1245
     95  CA        -3.9250   12.0070   20.0300 C.3   132  VAL132      0.1561
     96  C         -2.9150   12.4370   21.0870 C.2   132  VAL132      0.2260
     97  O         -2.2200   11.5980   21.6580 O.2   132  VAL132     -0.2867
     98  CB        -3.1620   11.4400   18.7890 C.3   132  VAL132      0.0252
     99  CG1       -4.1140   10.6950   17.8800 C.3   132  VAL132      0.0019
    100  CG2       -2.4210   12.5450   18.0370 C.3   132  VAL132      0.0019
    101  N         -8.9960    9.6490   22.2550 N.3   138  LEU138     -0.1245
    102  CA        -9.6780    8.6850   21.4010 C.3   138  LEU138      0.1561
    103  C        -10.5140    7.6810   22.1670 C.2   138  LEU138      0.2260
    104  O        -10.2770    7.4270   23.3430 O.2   138  LEU138     -0.2867
    105  CB        -8.6670    7.9010   20.5630 C.3   138  LEU138      0.0270
    106  CG        -7.7430    8.6200   19.5950 C.3   138  LEU138      0.0019
    107  CD1       -7.0020    7.5850   18.7680 C.3   138  LEU138      0.0001
    108  CD2       -8.5230    9.5180   18.6870 C.3   138  LEU138      0.0001
    109  N         -3.0030    3.1280   21.3100 N.3   195  LEU195     -0.1245
    110  CA        -3.1920    2.6820   19.9360 C.3   195  LEU195      0.1561
    111  C         -2.4110    1.3640   19.9560 C.2   195  LEU195      0.2260
    112  O         -1.4090    1.2590   20.6860 O.2   195  LEU195     -0.2867
    113  CB        -2.4850    3.6350   18.9680 C.3   195  LEU195      0.0270
    114  CG        -2.9140    5.0950   19.0130 C.3   195  LEU195      0.0019
    115  CD1       -2.0470    5.9060   18.0680 C.3   195  LEU195      0.0001
    116  CD2       -4.3660    5.1810   18.6380 C.3   195  LEU195      0.0001
@<TRIPOS>BOND
     1     4     3    2
     2     3     2    1
     3     2     5    1
     4     2     1    1
     5     8     6    1
     6     5     6    1
     7     6     7    1
     8    24    23   ar
     9    23    25   ar
    10    23    22    1
    11    12    11    2
    12    20    19    2
    13    21    22    1
    14    21    18    1
    15    17    18    1
    16    44    42   ar
    17    11    10    1
    18     9    10    1
    19    41    42    1
    20    41    38    1
    21    19    18    1
    22    19    26   am
    23    42    43   ar
    24    10    13    1
    25    37    38    1
    26    37    28   am
    27    38    39    1
    28    13    14    1
    29    26    27    1
    30    27    28    1
    31    27    30    1
    32    28    29    2
    33    58    57    1
    34    14    15    2
    35    14    16   am
    36    35    33   ar
    37    35    36   ar
    38    33    31   ar
    39    57    54    1
    40    36    34   ar
    41    39    40    2
    42    39    45   am
    43    31    30    1
    44    31    32   ar
    45    34    32   ar
    46    45    46    1
    47    53    54    1
    48    53    47   am
    49    62    61    2
    50    54    55    1
    51    51    50   ar
    52    71    68    1
    53    71    72    1
    54    46    47    1
    55    46    49    1
    56    68    69    1
    57    68    67    1
    58    55    56    2
    59    47    48    2
    60    61    67   am
    61    61    60    1
    62    50    49    1
    63    50    52   ar
    64    72    73    1
    65    64    66    1
    66    64    63    1
    67    69    70    2
    68    74    73    2
    69    73    75   am
    70    60    63    1
    71    60    59    1
    72    63    65    1
    73    89    87    1
    74    87    88    1
    75    87    84    1
    76    79    78    2
    77    83    84    1
    78    82    80    1
    79    90    91    1
    80    90    85   am
    81    80    81    1
    82    80    77    1
    83    76    77    1
    84    84    85    1
    85    91    92    1
    86    85    86    2
    87    77    78    1
    88    92    93    2
    89    99    98    1
    90   100    98    1
    91   115   114    1
    92   116   114    1
    93   108   106    1
    94   107   106    1
    95    98    95    1
    96   113   114    1
    97   113   110    1
    98   106   105    1
    99    94    95    1
   100   110   111    1
   101   110   109    1
   102   111   112    2
   103    95    96    1
   104   105   102    1
   105    96    97    2
   106   102   103    1
   107   102   101    1
   108   103   104    2
