@<TRIPOS>MOLECULE
tmp/1g4kA00.pdb
 166 166 0 0 0
SMALL
GASTEIGER

@<TRIPOS>ATOM
      1  N         16.4880   30.1340   38.9220 N.3    80  ASN80      -0.1225
      2  CA        15.6520   29.8730   40.0400 C.3    80  ASN80       0.1785
      3  C         16.4260   29.5760   41.3490 C.2    80  ASN80       0.2597
      4  O         17.2190   30.4340   41.7480 O.2    80  ASN80      -0.2718
      5  CB        14.6570   28.7330   39.7500 C.3    80  ASN80       0.1169
      6  CG        13.5370   28.8500   40.7730 C.2    80  ASN80       0.2627
      7  OD1       13.5030   29.8350   41.5110 O.2    80  ASN80      -0.2716
      8  ND2       12.6200   27.9090   40.7500 N.am   80  ASN80      -0.0877
      9  N         16.2210   28.4750   42.0510 N.am   81  VAL81      -0.1966
     10  CA        17.0660   28.2720   43.2710 C.3    81  VAL81       0.1727
     11  C         18.5320   28.2000   42.9090 C.2    81  VAL81       0.2616
     12  O         18.9750   27.4130   42.0540 O.2    81  VAL81      -0.2715
     13  CB        16.6110   27.0690   44.0780 C.3    81  VAL81       0.0290
     14  CG1       17.5150   26.7920   45.3120 C.3    81  VAL81       0.0023
     15  CG2       15.1670   27.3500   44.5400 C.3    81  VAL81       0.0023
     16  N         19.4050   28.9930   43.5490 N.am   82  LEU82      -0.1963
     17  CA        20.8470   28.9340   43.2910 C.3    82  LEU82       0.1728
     18  C         21.5930   27.9540   44.2130 C.2    82  LEU82       0.2616
     19  O         22.6540   27.4230   43.8860 O.2    82  LEU82      -0.2715
     20  CB        21.4660   30.3230   43.4940 C.3    82  LEU82       0.0311
     21  CG        20.7570   31.4130   42.6630 C.3    82  LEU82       0.0022
     22  CD1       21.2070   32.8080   43.0530 C.3    82  LEU82       0.0001
     23  CD2       20.9830   31.1210   41.1800 C.3    82  LEU82       0.0001
     24  N         21.0900   27.8260   45.3960 N.am   83  ALA83      -0.1963
     25  CA        21.6710   27.0540   46.4890 C.3    83  ALA83       0.1728
     26  C         20.6720   27.0310   47.6210 C.2    83  ALA83       0.2616
     27  O         19.6880   27.8000   47.5280 O.2    83  ALA83      -0.2715
     28  CB        22.8600   27.8330   47.0780 C.3    83  ALA83       0.0334
     29  N         20.9640   26.2710   48.7010 N.am   84  HIS84      -0.1959
     30  CA        20.0680   26.3280   49.8420 C.3    84  HIS84       0.1787
     31  C         20.8620   25.8160   51.0620 C.2    84  HIS84       0.2620
     32  O         21.8770   25.1630   50.8300 O.2    84  HIS84      -0.2715
     33  CB        18.7330   25.5930   49.8120 C.3    84  HIS84       0.0785
     34  CG        18.7810   24.1520   49.4020 C.ar   84  HIS84       0.0821
     35  ND1       17.8870   23.5960   48.5100 N.ar   84  HIS84      -0.2267
     36  CD2       19.5870   23.1290   49.8120 C.ar   84  HIS84       0.1154
     37  CE1       18.1840   22.2980   48.3410 C.ar   84  HIS84       0.1986
     38  NE2       19.2150   22.0040   49.1430 N.ar   84  HIS84      -0.2212
     39  N         20.3570   26.1360   52.2370 N.am   85  ALA85      -0.1977
     40  CA        21.0760   25.7340   53.4420 C.3    85  ALA85       0.1597
     41  C         20.0950   25.4640   54.5830 C.2    85  ALA85       0.2287
     42  O         19.0230   26.0850   54.5760 O.2    85  ALA85      -0.2864
     43  CB        21.9940   26.8590   53.9150 C.3    85  ALA85       0.0319
     44  N         29.1820   35.6590   47.0830 N.3   115  LEU115     -0.1231
     45  CA        27.9470   36.3160   47.4550 C.3   115  LEU115      0.1693
     46  C         26.9130   35.3090   47.9430 C.2   115  LEU115      0.2591
     47  O         26.2580   35.4900   48.9780 O.2   115  LEU115     -0.2718
     48  CB        27.3170   37.1120   46.3140 C.3   115  LEU115      0.0284
     49  CG        27.1850   38.6230   46.3400 C.3   115  LEU115      0.0019
     50  CD1       28.4070   39.3550   46.8880 C.3   115  LEU115      0.0001
     51  CD2       26.9180   39.1700   44.9190 C.3   115  LEU115      0.0001
     52  N         26.6830   34.2940   47.1050 N.am  116  VAL116     -0.1980
     53  CA        25.6280   33.3250   47.4380 C.3   116  VAL116      0.1595
     54  C         26.0310   32.5190   48.6870 C.2   116  VAL116      0.2287
     55  O         25.2150   32.2010   49.5180 O.2   116  VAL116     -0.2864
     56  CB        25.4260   32.3810   46.2270 C.3   116  VAL116      0.0276
     57  CG1       24.4680   31.2690   46.6360 C.3   116  VAL116      0.0022
     58  CG2       24.8170   33.2160   45.0790 C.3   116  VAL116      0.0022
     59  N         25.3460   34.5180   51.8120 N.3   119  HIS119     -0.1226
     60  CA        23.9390   34.4430   52.1400 C.3   119  HIS119      0.1752
     61  C         23.5780   33.0480   52.7220 C.2   119  HIS119      0.2595
     62  O         22.8880   32.9080   53.7450 O.2   119  HIS119     -0.2718
     63  CB        23.1000   34.6630   50.8400 C.3   119  HIS119      0.0759
     64  CG        21.6180   34.5110   51.0480 C.ar  119  HIS119      0.0818
     65  ND1       20.7080   35.4860   51.3320 N.ar  119  HIS119     -0.2268
     66  CD2       20.8950   33.3490   50.9400 C.ar  119  HIS119      0.1154
     67  CE1       19.5060   34.9360   51.4820 C.ar  119  HIS119      0.1986
     68  NE2       19.5830   33.6190   51.2010 N.ar  119  HIS119     -0.2212
     69  N         24.0820   31.9820   52.0730 N.am  120  GLU120     -0.1979
     70  CA        23.7120   30.6430   52.6410 C.3   120  GLU120      0.1602
     71  C         24.2610   30.4570   54.0670 C.2   120  GLU120      0.2287
     72  O         23.6290   29.7810   54.8840 O.2   120  GLU120     -0.2864
     73  CB        24.2390   29.5310   51.7290 C.3   120  GLU120      0.0415
     74  CG        23.6440   29.6590   50.2970 C.3   120  GLU120      0.1163
     75  CD        22.1270   29.6300   50.3620 C.2   120  GLU120      0.3649
     76  OE1       21.4990   28.8990   51.1950 O.co2 120  GLU120     -0.2457
     77  OE2       21.5340   30.3930   49.5950 O.co2 120  GLU120     -0.2457
     78  N         22.0660   31.4930   56.6070 N.3   123  HIS123     -0.1241
     79  CA        21.0370   30.5150   56.9160 C.3   123  HIS123      0.1621
     80  C         21.6210   29.3940   57.8240 C.2   123  HIS123      0.2264
     81  O         20.9930   28.9880   58.8080 O.2   123  HIS123     -0.2867
     82  CB        20.5010   29.8660   55.6390 C.3   123  HIS123      0.0745
     83  CG        19.6710   30.7390   54.7670 C.ar  123  HIS123      0.0817
     84  ND1       18.7110   31.5750   55.3600 N.ar  123  HIS123     -0.2268
     85  CD2       19.5360   30.8310   53.4050 C.ar  123  HIS123      0.1154
     86  CE1       18.0910   32.2160   54.3400 C.ar  123  HIS123      0.1986
     87  NE2       18.5470   31.7630   53.2020 N.ar  123  HIS123     -0.2212
     88  N         15.1340   35.0580   56.0750 N.3   129  HIS129     -0.1241
     89  CA        15.0810   36.1540   55.1270 C.3   129  HIS129      0.1621
     90  C         14.6400   37.4660   55.7600 C.2   129  HIS129      0.2264
     91  O         13.6380   37.5390   56.4570 O.2   129  HIS129     -0.2867
     92  CB        14.1590   35.7770   53.9400 C.3   129  HIS129      0.0745
     93  CG        14.8690   34.7760   53.0460 C.ar  129  HIS129      0.0817
     94  ND1       14.2180   33.8030   52.3390 N.ar  129  HIS129     -0.2268
     95  CD2       16.1980   34.5820   52.8040 C.ar  129  HIS129      0.1154
     96  CE1       15.0710   33.0760   51.6580 C.ar  129  HIS129      0.1986
     97  NE2       16.2920   33.5200   51.9220 N.ar  129  HIS129     -0.2212
     98  N         15.9430   45.5280   51.7810 N.3   133  THR133     -0.1218
     99  CA        16.4830   45.3990   50.4500 C.3   133  THR133      0.1862
    100  C         17.9910   45.4490   50.3210 C.2   133  THR133      0.2287
    101  O         18.5920   44.9090   49.3950 O.2   133  THR133     -0.2866
    102  CB        15.9540   46.3650   49.3450 C.3   133  THR133      0.1770
    103  OG1       16.3350   47.7080   49.6360 O.3   133  THR133     -0.2211
    104  CG2       14.4710   46.2370   49.1790 C.3   133  THR133      0.0375
    105  N         19.7710   44.1520   52.8280 N.3   135  ALA135     -0.1231
    106  CA        20.4420   43.1240   53.6490 C.3   135  ALA135      0.1694
    107  C         21.0800   42.0040   52.8600 C.2   135  ALA135      0.2591
    108  O         20.4690   41.5700   51.8830 O.2   135  ALA135     -0.2718
    109  CB        19.3760   42.5270   54.5490 C.3   135  ALA135      0.0304
    110  N         22.1600   41.3940   53.3160 N.am  136  LEU136     -0.1980
    111  CA        22.6890   40.2210   52.6300 C.3   136  LEU136      0.1596
    112  C         21.6320   39.1250   52.6670 C.2   136  LEU136      0.2287
    113  O         21.5320   38.3040   51.7340 O.2   136  LEU136     -0.2864
    114  CB        23.9640   39.7230   53.2950 C.3   136  LEU136      0.0297
    115  CG        24.5360   38.4050   52.7640 C.3   136  LEU136      0.0022
    116  CD1       24.9540   38.4820   51.2890 C.3   136  LEU136      0.0001
    117  CD2       25.7560   38.1000   53.6160 C.3   136  LEU136      0.0001
    118  N         18.4650   39.4580   52.3980 N.3   138  TYR138     -0.1228
    119  CA        17.2410   39.7720   51.6060 C.3   138  TYR138      0.1721
    120  C         17.1280   38.6650   50.5300 C.2   138  TYR138      0.2437
    121  O         18.1440   38.3160   49.9180 O.2   138  TYR138     -0.2733
    122  CB        17.4790   41.1080   50.8910 C.3   138  TYR138      0.0547
    123  CG        16.2280   41.5950   50.1850 C.ar  138  TYR138     -0.0200
    124  CD1       15.0920   41.8930   50.9240 C.ar  138  TYR138     -0.0009
    125  CD2       16.2090   41.7500   48.8070 C.ar  138  TYR138     -0.0009
    126  CE1       13.9220   42.3410   50.3010 C.ar  138  TYR138      0.0417
    127  CE2       15.0330   42.1700   48.1750 C.ar  138  TYR138      0.0417
    128  CZ        13.9230   42.4730   48.9280 C.ar  138  TYR138      0.1957
    129  OH        12.7710   42.8950   48.3070 O.3   138  TYR138     -0.2866
    130  N         15.9790   38.1350   50.2270 N.am  139  PRO139     -0.2718
    131  CA        15.9110   36.9290   49.3890 C.3   139  PRO139      0.1535
    132  C         16.0310   37.1190   47.9030 C.2   139  PRO139      0.2598
    133  O         15.4700   36.3130   47.1440 O.2   139  PRO139     -0.2715
    134  CB        14.5630   36.3270   49.7780 C.3   139  PRO139      0.0310
    135  CG        13.7350   37.4910   50.2410 C.3   139  PRO139      0.0237
    136  CD        14.6980   38.4460   50.8750 C.3   139  PRO139      0.0939
    137  N         16.5920   38.2300   47.4670 N.am  140  LEU140     -0.1964
    138  CA        16.6650   38.5050   46.0510 C.3   140  LEU140      0.1728
    139  C         18.1140   38.6410   45.5960 C.2   140  LEU140      0.2616
    140  O         18.7260   39.6560   45.9410 O.2   140  LEU140     -0.2715
    141  CB        15.9560   39.8110   45.6820 C.3   140  LEU140      0.0311
    142  CG        14.5620   39.7520   45.0790 C.3   140  LEU140      0.0022
    143  CD1       13.5140   39.3570   46.1100 C.3   140  LEU140      0.0001
    144  CD2       14.2410   41.1080   44.4530 C.3   140  LEU140      0.0001
    145  N         18.5650   37.6390   44.8530 N.am  141  TYR141     -0.1960
    146  CA        19.9230   37.7170   44.3260 C.3   141  TYR141      0.1771
    147  C         20.1240   38.9730   43.4770 C.2   141  TYR141      0.2616
    148  O         19.3130   39.3590   42.6490 O.2   141  TYR141     -0.2715
    149  CB        20.2210   36.4810   43.4330 C.3   141  TYR141      0.0574
    150  CG        21.6330   36.6000   42.8840 C.ar  141  TYR141     -0.0198
    151  CD1       22.6940   36.2760   43.7120 C.ar  141  TYR141     -0.0009
    152  CD2       21.9070   37.0850   41.6060 C.ar  141  TYR141     -0.0009
    153  CE1       23.9930   36.3720   43.2850 C.ar  141  TYR141      0.0417
    154  CE2       23.2190   37.2150   41.1760 C.ar  141  TYR141      0.0417
    155  CZ        24.2540   36.8630   42.0120 C.ar  141  TYR141      0.1957
    156  OH        25.5760   36.9730   41.6330 O.3   141  TYR141     -0.2866
    157  N         21.2930   39.5740   43.5640 N.am  142  HIS142     -0.2026
    158  CA        21.7370   40.6840   42.7410 C.3   142  HIS142      0.1342
    159  C         23.2640   40.5620   42.8170 C.3   142  HIS142      0.2040
    160  O         23.7070   40.3270   43.9500 O.3   142  HIS142     -0.2185
    161  CB        21.2420   42.0560   43.2000 C.3   142  HIS142      0.0718
    162  CG        22.0690   42.6970   44.2710 C.ar  142  HIS142      0.0817
    163  ND1       23.1370   43.5300   44.0040 N.ar  142  HIS142     -0.2268
    164  CD2       22.0380   42.5990   45.6170 C.ar  142  HIS142      0.1154
    165  CE1       23.7040   43.9190   45.1270 C.ar  142  HIS142      0.1986
    166  NE2       23.0630   43.3620   46.1310 N.ar  142  HIS142     -0.2212
@<TRIPOS>BOND
     1     1     2    1
     2     5     2    1
     3     5     6    1
     4     2     3    1
     5     8     6   am
     6     6     7    2
     7   154   152   ar
     8   154   155   ar
     9    23    21    1
    10     3     4    2
    11     3     9   am
    12   152   150   ar
    13   156   155    1
    14   155   153   ar
    15     9    10    1
    16    12    11    2
    17   148   147    2
    18    21    22    1
    19    21    20    1
    20   158   159    1
    21   158   161    1
    22   158   157    1
    23   159   160    1
    24   150   149    1
    25   150   151   ar
    26    11    10    1
    27    11    16   am
    28   161   162    1
    29    10    13    1
    30   153   151   ar
    31    17    20    1
    32    17    16    1
    33    17    18    1
    34   149   146    1
    35   147   157   am
    36   147   146    1
    37    19    18    2
    38   163   162   ar
    39   163   165   ar
    40    13    15    1
    41    13    14    1
    42    18    24   am
    43   162   164   ar
    44   146   145    1
    45   144   142    1
    46   145   139   am
    47    51    49    1
    48   142   141    1
    49   142   143    1
    50    58    56    1
    51   165   166   ar
    52    24    25    1
    53   139   140    2
    54   139   138    1
    55   164   166   ar
    56   141   138    1
    57   138   137    1
    58    56    57    1
    59    56    53    1
    60    48    49    1
    61    48    45    1
    62    49    50    1
    63    25    28    1
    64    25    26    1
    65    44    45    1
    66    52    53    1
    67    52    46   am
    68   133   132    2
    69    53    54    1
    70    45    46    1
    71   137   132   am
    72    27    26    2
    73    26    29   am
    74   132   131    1
    75    46    47    2
    76   127   125   ar
    77   127   128   ar
    78   129   128    1
    79    37    35   ar
    80    37    38   ar
    81    35    34   ar
    82    54    55    2
    83    29    30    1
    84   125   123   ar
    85   128   126   ar
    86    38    36   ar
    87   104   102    1
    88   102   103    1
    89   102    99    1
    90   131   134    1
    91   131   130    1
    92   101   100    2
    93    34    33    1
    94    34    36   ar
    95    77    75   ar
    96   134   135    1
    97    33    30    1
    98    30    31    1
    99   121   120    2
   100   123   122    1
   101   123   124   ar
   102   130   120   am
   103   130   136    1
   104   135   136    1
   105    74    75    1
   106    74    73    1
   107   126   124   ar
   108   100    99    1
   109    75    76   ar
   110    99    98    1
   111   120   119    1
   112    32    31    2
   113    63    64    1
   114    63    60    1
   115   122   119    1
   116    66    64   ar
   117    66    68   ar
   118    64    65   ar
   119    31    39   am
   120    68    67   ar
   121   116   115    1
   122    65    67   ar
   123   119   118    1
   124    96    97   ar
   125    96    94   ar
   126    73    70    1
   127   113   112    2
   128    59    60    1
   129   108   107    2
   130    97    95   ar
   131    69    70    1
   132    69    61   am
   133    60    61    1
   134    39    40    1
   135    94    93   ar
   136   111   112    1
   137   111   114    1
   138   111   110    1
   139    70    71    1
   140    61    62    2
   141   115   114    1
   142   115   117    1
   143    95    93   ar
   144   105   106    1
   145   107   110   am
   146   107   106    1
   147    93    92    1
   148    87    85   ar
   149    87    86   ar
   150    85    83   ar
   151    40    43    1
   152    40    41    1
   153   106   109    1
   154    92    89    1
   155    71    72    2
   156    86    84   ar
   157    42    41    2
   158    83    84   ar
   159    83    82    1
   160    89    90    1
   161    89    88    1
   162    82    79    1
   163    90    91    2
   164    78    79    1
   165    79    80    1
   166    80    81    2
