@<TRIPOS>MOLECULE
tmp/1g4pA00.pdb
 176 165 0 0 0
SMALL
GASTEIGER

@<TRIPOS>ATOM
      1  N         17.5590   32.5760   20.3030 N.3    20  TYR20      -0.1241
      2  CA        18.3850   33.7610   20.1180 C.3    20  TYR20       0.1605
      3  C         18.1200   34.8350   21.1680 C.2    20  TYR20       0.2264
      4  O         17.1570   35.5870   21.0670 O.2    20  TYR20      -0.2867
      5  CB        18.1130   34.2880   18.7020 C.3    20  TYR20       0.0534
      6  CG        19.0180   35.3770   18.1630 C.ar   20  TYR20      -0.0201
      7  CD1       20.0230   35.9490   18.9380 C.ar   20  TYR20      -0.0009
      8  CD2       18.8500   35.8440   16.8570 C.ar   20  TYR20      -0.0009
      9  CE1       20.8390   36.9630   18.4220 C.ar   20  TYR20       0.0417
     10  CE2       19.6580   36.8590   16.3320 C.ar   20  TYR20       0.0417
     11  CZ        20.6430   37.4110   17.1180 C.ar   20  TYR20       0.1957
     12  OH        21.4060   38.4290   16.6150 O.3    20  TYR20      -0.2866
     13  N         18.5860   38.2830   23.1420 N.3    22  ILE22      -0.1245
     14  CA        18.9490   39.6690   22.8850 C.3    22  ILE22       0.1561
     15  C         18.8980   40.3760   24.2330 C.2    22  ILE22       0.2260
     16  O         17.9510   40.1710   24.9940 O.2    22  ILE22      -0.2867
     17  CB        17.9280   40.3440   21.9400 C.3    22  ILE22       0.0252
     18  CG1       17.7730   39.5110   20.6690 C.3    22  ILE22       0.0019
     19  CG2       18.3770   41.7600   21.6020 C.3    22  ILE22       0.0019
     20  CD1       16.7180   40.0460   19.7050 C.3    22  ILE22       0.0001
     21  N         22.8760   38.5250   21.1090 N.3    48  GLN48      -0.1245
     22  CA        23.0160   39.8310   20.4870 C.3    48  GLN48       0.1566
     23  C         23.1570   40.8940   21.5550 C.2    48  GLN48       0.2260
     24  O         22.3030   41.0300   22.4450 O.2    48  GLN48      -0.2867
     25  CB        21.7880   40.1530   19.6290 C.3    48  GLN48       0.0367
     26  CG        21.7350   41.5900   19.1230 C.3    48  GLN48       0.0905
     27  CD        20.3910   41.9430   18.4920 C.2    48  GLN48       0.2608
     28  OE1       19.8230   42.9950   18.7760 O.2    48  GLN48      -0.2717
     29  NE2       19.8840   41.0660   17.6270 N.am   48  GLN48      -0.0878
     30  N         22.6890   44.3140   22.6610 N.3    50  ARG50      -0.1245
     31  CA        21.8280   45.4240   22.2740 C.3    50  ARG50       0.1563
     32  C         21.7960   46.4420   23.4060 C.2    50  ARG50       0.2260
     33  O         21.0130   46.3020   24.3460 O.2    50  ARG50      -0.2867
     34  CB        20.4210   44.8840   21.9960 C.3    50  ARG50       0.0307
     35  CG        19.4050   45.9110   21.5120 C.3    50  ARG50       0.0489
     36  CD        18.0820   45.2210   21.2180 C.3    50  ARG50       0.2205
     37  NE        17.0630   46.1570   20.7660 N.pl3  50  ARG50      -0.0865
     38  CZ        16.5570   47.1240   21.5190 C.cat  50  ARG50       0.5346
     39  NH1       16.9800   47.2740   22.7620 N.pl3  50  ARG50       0.1354
     40  NH2       15.6310   47.9390   21.0320 N.pl3  50  ARG50       0.1354
     41  N         21.1050   50.3000   24.1870 N.3    52  LYS52      -0.1245
     42  CA        20.6410   51.6000   23.7160 C.3    52  LYS52       0.1561
     43  C         19.4020   52.0730   24.4640 C.2    52  LYS52       0.2260
     44  O         18.7310   51.2880   25.1410 O.2    52  LYS52      -0.2867
     45  CB        20.3190   51.5150   22.2210 C.3    52  LYS52       0.0271
     46  CG        19.2200   50.5020   21.9070 C.3    52  LYS52       0.0035
     47  CD        19.0980   50.1950   20.4250 C.3    52  LYS52       0.0206
     48  CE        18.6800   51.4070   19.6240 C.3    52  LYS52       0.1093
     49  NZ        18.2570   51.0220   18.2430 N.3    52  LYS52      -0.1314
     50  N         24.4550   44.7680   17.8550 N.3    83  ASN83      -0.1225
     51  CA        23.3030   45.4200   17.2370 C.3    83  ASN83       0.1785
     52  C         23.5730   46.8780   16.8640 C.2    83  ASN83       0.2597
     53  O         24.2170   47.6040   17.6160 O.2    83  ASN83      -0.2718
     54  CB        22.1020   45.3540   18.1740 C.3    83  ASN83       0.1169
     55  CG        20.8490   45.9340   17.5570 C.2    83  ASN83       0.2627
     56  OD1       20.3760   45.4520   16.5260 O.2    83  ASN83      -0.2716
     57  ND2       20.3000   46.9740   18.1880 N.am   83  ASN83      -0.0877
     58  N         23.0750   47.2790   15.6930 N.am   84  ASP84      -0.1974
     59  CA        23.2170   48.6360   15.1620 C.3    84  ASP84       0.1709
     60  C         24.6490   49.0800   14.8680 C.2    84  ASP84       0.2293
     61  O         24.9900   49.3840   13.7280 O.2    84  ASP84      -0.2864
     62  CB        22.5990   49.6730   16.1150 C.3    84  ASP84       0.1436
     63  CG        21.1080   49.5010   16.3000 C.2    84  ASP84       0.3671
     64  OD1       20.4640   48.8390   15.4620 O.co2  84  ASP84      -0.2456
     65  OD2       20.5730   50.0450   17.2860 O.co2  84  ASP84      -0.2456
     66  N         23.7380   43.1750   13.5980 N.3    98  HIS98      -0.1226
     67  CA        22.3390   43.1730   13.1920 C.3    98  HIS98       0.1752
     68  C         21.8860   44.6040   12.9040 C.2    98  HIS98       0.2596
     69  O         22.2620   45.5390   13.6210 O.2    98  HIS98      -0.2718
     70  CB        21.4320   42.5750   14.2650 C.3    98  HIS98       0.0759
     71  CG        20.0320   42.3450   13.7850 C.ar   98  HIS98       0.0818
     72  ND1       19.6280   41.1580   13.2120 N.ar   98  HIS98      -0.2268
     73  CD2       18.9730   43.1830   13.6890 C.ar   98  HIS98       0.1154
     74  CE1       18.3860   41.2760   12.7820 C.ar   98  HIS98       0.1986
     75  NE2       17.9660   42.4970   13.0590 N.ar   98  HIS98      -0.2212
     76  N         21.0870   44.7710   11.8520 N.am   99  ILE99      -0.1966
     77  CA        20.5910   46.0940   11.4860 C.3    99  ILE99       0.1727
     78  C         19.1050   46.0960   11.1300 C.2    99  ILE99       0.2617
     79  O         18.5260   45.0660   10.7550 O.2    99  ILE99      -0.2715
     80  CB        21.3920   46.7060   10.2860 C.3    99  ILE99       0.0290
     81  CG1       21.2720   45.8100    9.0530 C.3    99  ILE99       0.0022
     82  CG2       22.8660   46.8760   10.6570 C.3    99  ILE99       0.0023
     83  CD1       22.0330   46.3250    7.8360 C.3    99  ILE99       0.0001
     84  N         18.4920   47.2680   11.2650 N.am  100  GLY100     -0.1940
     85  CA        17.0880   47.4180   10.9390 C.3   100  GLY100      0.2014
     86  C         16.9270   48.2780    9.6960 C.2   100  GLY100      0.2639
     87  O         17.9060   48.5720    9.0080 O.2   100  GLY100     -0.2714
     88  N         15.6930   48.6850    9.4150 N.am  101  GLN101     -0.1963
     89  CA        15.3940   49.5070    8.2520 C.3   101  GLN101      0.1733
     90  C         15.8110   50.9650    8.4110 C.2   101  GLN101      0.2616
     91  O         15.9500   51.6860    7.4240 O.2   101  GLN101     -0.2715
     92  CB        13.8990   49.4440    7.9330 C.3   101  GLN101      0.0408
     93  CG        13.4010   48.0720    7.5010 C.3   101  GLN101      0.0908
     94  CD        14.1560   47.5440    6.3070 C.2   101  GLN101      0.2608
     95  OE1       14.4420   48.2840    5.3680 O.2   101  GLN101     -0.2717
     96  NE2       14.4750   46.2570    6.3280 N.am  101  GLN101     -0.0878
     97  N         16.0100   51.4090    9.6460 N.am  102  GLU102     -0.1963
     98  CA        16.4070   52.7940    9.8710 C.3   102  GLU102      0.1733
     99  C         17.8920   52.9170   10.1610 C.2   102  GLU102      0.2616
    100  O         18.3980   54.0140   10.3630 O.2   102  GLU102     -0.2715
    101  CB        15.6230   53.4030   11.0350 C.3   102  GLU102      0.0429
    102  CG        14.1140   53.2350   10.9440 C.3   102  GLU102      0.1163
    103  CD        13.3620   54.2110   11.8380 C.2   102  GLU102      0.3649
    104  OE1       13.6960   54.3190   13.0380 O.co2 102  GLU102     -0.2457
    105  OE2       12.4290   54.8740   11.3370 O.co2 102  GLU102     -0.2457
    106  N         18.5880   51.7890   10.1890 N.am  103  ASP103     -0.1971
    107  CA        20.0220   51.7900   10.4570 C.3   103  ASP103      0.1709
    108  C         20.7850   51.9200    9.1460 C.2   103  ASP103      0.2293
    109  O         20.1820   52.1400    8.0970 O.2   103  ASP103     -0.2864
    110  CB        20.4200   50.4970   11.1720 C.3   103  ASP103      0.1436
    111  CG        19.7250   50.3390   12.5060 C.2   103  ASP103      0.3671
    112  OD1       19.7960   51.2820   13.3220 O.co2 103  ASP103     -0.2456
    113  OD2       19.1160   49.2770   12.7470 O.co2 103  ASP103     -0.2456
    114  N         16.5160   43.2080    9.9830 N.3   121  ALA121     -0.1245
    115  CA        15.1360   43.2190   10.4530 C.3   121  ALA121      0.1562
    116  C         14.1710   43.5500    9.3120 C.2   121  ALA121      0.2260
    117  O         14.2360   44.6270    8.7270 O.2   121  ALA121     -0.2867
    118  CB        14.9840   44.2340   11.5660 C.3   121  ALA121      0.0290
    119  N         10.0010   43.5800    7.7560 N.3   123  HIS123     -0.1241
    120  CA         8.6120   43.7150    8.1650 C.3   123  HIS123      0.1621
    121  C          7.6530   43.5040    7.0020 C.2   123  HIS123      0.2264
    122  O          6.4500   43.3480    7.2010 O.2   123  HIS123     -0.2867
    123  CB         8.4100   45.0990    8.7690 C.3   123  HIS123      0.0745
    124  CG         9.4100   45.4310    9.8310 C.ar  123  HIS123      0.0817
    125  ND1        9.2990   44.9730   11.1280 N.ar  123  HIS123     -0.2268
    126  CD2       10.5780   46.1140    9.7730 C.ar  123  HIS123      0.1154
    127  CE1       10.3560   45.3580   11.8190 C.ar  123  HIS123      0.1986
    128  NE2       11.1500   46.0500   11.0200 N.ar  123  HIS123     -0.2212
    129  N         20.4820   36.3030    7.3910 N.3   138  TYR138     -0.1241
    130  CA        19.2150   35.9590    8.0220 C.3   138  TYR138      0.1605
    131  C         18.4300   37.2480    8.2680 C.2   138  TYR138      0.2264
    132  O         18.9880   38.3460    8.2100 O.2   138  TYR138     -0.2867
    133  CB        19.4450   35.2220    9.3450 C.3   138  TYR138      0.0534
    134  CG        19.8270   36.1190   10.4990 C.ar  138  TYR138     -0.0201
    135  CD1       18.8540   36.8040   11.2320 C.ar  138  TYR138     -0.0009
    136  CD2       21.1650   36.3100   10.8420 C.ar  138  TYR138     -0.0009
    137  CE1       19.2070   37.6650   12.2830 C.ar  138  TYR138      0.0417
    138  CE2       21.5310   37.1620   11.8830 C.ar  138  TYR138      0.0417
    139  CZ        20.5470   37.8430   12.5990 C.ar  138  TYR138      0.1957
    140  OH        20.9150   38.7260   13.5980 O.3   138  TYR138     -0.2866
    141  N         15.0720   39.1000   10.7180 N.3   140  GLY140     -0.1225
    142  CA        14.2500   39.0240   11.9100 C.3   140  GLY140      0.1811
    143  C         12.8980   39.6150   11.5860 C.2   140  GLY140      0.2280
    144  O         12.7550   40.8290   11.4650 O.2   140  GLY140     -0.2866
    145  N          6.0460   49.6050   16.0760 N.3   148  ARG148     -0.1245
    146  CA         5.8050   48.8910   14.8020 C.3   148  ARG148      0.1563
    147  C          4.7020   47.8580   15.0010 C.2   148  ARG148      0.2260
    148  O          4.7250   47.0960   15.9620 O.2   148  ARG148     -0.2867
    149  CB         7.0500   48.1470   14.2760 C.3   148  ARG148      0.0307
    150  CG         8.4160   48.4370   14.9220 C.3   148  ARG148      0.0489
    151  CD         8.3490   48.5730   16.4430 C.3   148  ARG148      0.2205
    152  NE         7.5710   47.5500   17.1330 N.pl3 148  ARG148     -0.0865
    153  CZ         7.3680   47.5500   18.4470 C.cat 148  ARG148      0.5346
    154  NH1        7.8810   48.5220   19.1850 N.pl3 148  ARG148      0.1354
    155  NH2        6.6880   46.5720   19.0350 N.pl3 148  ARG148      0.1354
    156  N         14.3660   34.3010   11.8970 N.3   169  VAL169     -0.1245
    157  CA        14.2360   34.2370   13.3480 C.3   169  VAL169      0.1561
    158  C         13.0810   35.1710   13.6820 C.2   169  VAL169      0.2260
    159  O         13.0010   36.2780   13.1490 O.2   169  VAL169     -0.2867
    160  CB        15.5300   34.6930   14.0960 C.3   169  VAL169      0.0252
    161  CG1       15.8540   36.1460   13.7890 C.3   169  VAL169      0.0019
    162  CG2       15.3490   34.4930   15.6020 C.3   169  VAL169      0.0019
    163  N         10.7260   37.6220   16.1090 N.3   171  ILE171     -0.1245
    164  CA        10.9660   38.5670   17.1960 C.3   171  ILE171      0.1561
    165  C          9.7120   39.3370   17.5980 C.2   171  ILE171      0.2260
    166  O          8.9080   39.7220   16.7500 O.2   171  ILE171     -0.2867
    167  CB        12.0560   39.5890   16.8190 C.3   171  ILE171      0.0252
    168  CG1       12.4350   40.4130   18.0520 C.3   171  ILE171      0.0019
    169  CG2       11.5560   40.5030   15.7000 C.3   171  ILE171      0.0019
    170  CD1       13.6010   41.3540   17.8290 C.3   171  ILE171      0.0001
    171  N         13.4060   34.8580   18.9190 N.3   191  SER191     -0.1217
    172  CA        14.2120   35.8380   19.6360 C.3   191  SER191      0.1889
    173  C         13.4390   36.3500   20.8440 C.2   191  SER191      0.2288
    174  O         12.2380   36.5670   20.7660 O.2   191  SER191     -0.2866
    175  CB        14.5380   37.0290   18.7330 C.3   191  SER191      0.2089
    176  OG        15.4910   36.6770   17.7510 O.3   191  SER191     -0.2183
@<TRIPOS>BOND
     1    95    94    2
     2    94    96   am
     3    94    93    1
     4   121   122    2
     5   121   120    1
     6   129   130    1
     7    91    90    2
     8    93    92    1
     9   119   120    1
    10    83    81    1
    11    92    89    1
    12   130   131    1
    13   130   133    1
    14   109   108    2
    15   120   123    1
    16   132   131    2
    17    89    90    1
    18    89    88    1
    19    90    97   am
    20   117   116    2
    21   123   124    1
    22    87    86    2
    23    81    80    1
    24   108   107    1
    25   116   115    1
    26   133   134    1
    27    88    86   am
    28    97    98    1
    29    86    85    1
    30   126   124   ar
    31   126   128   ar
    32   124   125   ar
    33    98    99    1
    34    98   101    1
    35   114   115    1
    36    99   106   am
    37    99   100    2
    38   106   107    1
    39    80    82    1
    40    80    77    1
    41   115   118    1
    42   107   110    1
    43   134   136   ar
    44   134   135   ar
    45   141   142    1
    46    79    78    2
    47   136   138   ar
    48    85    84    1
    49   102   101    1
    50   102   103    1
    51   128   127   ar
    52   125   127   ar
    53    78    84   am
    54    78    77    1
    55   110   111    1
    56   135   137   ar
    57   105   103   ar
    58   144   143    2
    59    77    76    1
    60   143   142    1
    61   103   104   ar
    62    76    68   am
    63   138   139   ar
    64   156   157    1
    65   137   139   ar
    66   111   113   ar
    67   111   112   ar
    68   139   140    1
    69    74    75   ar
    70    74    72   ar
    71    68    67    1
    72    68    69    2
    73    75    73   ar
    74   159   158    2
    75    67    66    1
    76    67    70    1
    77    72    71   ar
    78   157   158    1
    79   157   160    1
    80    73    71   ar
    81    61    60    2
    82    71    70    1
    83   161   160    1
    84   160   162    1
    85   149   146    1
    86   149   150    1
    87   146   147    1
    88   146   145    1
    89    60    59    1
    90   150   151    1
    91   147   148    2
    92    59    58    1
    93    59    62    1
    94    64    63   ar
    95    58    52   am
    96   169   167    1
    97   163   164    1
    98    62    63    1
    99    63    65   ar
   100    10     8   ar
   101    10    11   ar
   102   151   152    1
   103    56    55    2
   104    12    11    1
   105   166   165    2
   106   167   164    1
   107   167   168    1
   108     8     6   ar
   109    52    51    1
   110    52    53    2
   111    11     9   ar
   112   152   153    2
   113   164   165    1
   114    51    50    1
   115    51    54    1
   116    55    54    1
   117    55    57   am
   118    29    27   am
   119   176   175    1
   120   170   168    1
   121     6     5    1
   122     6     7   ar
   123    49    48    1
   124     9     7   ar
   125   153   155    1
   126   153   154    1
   127    27    28    2
   128    27    26    1
   129     5     2    1
   130   175   172    1
   131   171   172    1
   132    26    25    1
   133    48    47    1
   134    25    22    1
   135   172   173    1
   136    20    18    1
   137     2     1    1
   138     2     3    1
   139    47    46    1
   140    22    21    1
   141    22    23    1
   142    18    17    1
   143    37    36    1
   144    37    38    2
   145   174   173    2
   146    40    38    1
   147     4     3    2
   148    36    35    1
   149    35    34    1
   150    38    39    1
   151    23    24    2
   152    19    17    1
   153    46    45    1
   154    17    14    1
   155    34    31    1
   156    45    42    1
   157    31    30    1
   158    31    32    1
   159    14    13    1
   160    14    15    1
   161    32    33    2
   162    42    41    1
   163    42    43    1
   164    15    16    2
   165    43    44    2
