@<TRIPOS>MOLECULE
tmp/1g4sB00.pdb
 184 172 0 0 0
SMALL
GASTEIGER

@<TRIPOS>ATOM
      1  N         58.8270   44.7030   21.4370 N.3    20  TYR20      -0.1241
      2  CA        58.0750   43.4970   21.0790 C.3    20  TYR20       0.1605
      3  C         58.3860   42.3100   22.0040 C.2    20  TYR20       0.2264
      4  O         59.3510   41.5740   21.7820 O.2    20  TYR20      -0.2867
      5  CB        58.4320   43.1680   19.6240 C.3    20  TYR20       0.0534
      6  CG        57.5650   42.1590   18.8920 C.ar   20  TYR20      -0.0201
      7  CD1       56.5620   41.4400   19.5420 C.ar   20  TYR20      -0.0009
      8  CD2       57.7960   41.8930   17.5430 C.ar   20  TYR20      -0.0009
      9  CE1       55.8160   40.4740   18.8560 C.ar   20  TYR20       0.0417
     10  CE2       57.0650   40.9390   16.8550 C.ar   20  TYR20       0.0417
     11  CZ        56.0790   40.2300   17.5140 C.ar   20  TYR20       0.1957
     12  OH        55.3780   39.2730   16.8210 O.3    20  TYR20      -0.2866
     13  N         57.9820   38.6690   23.6690 N.3    22  ILE22      -0.1245
     14  CA        57.5970   37.3180   23.2750 C.3    22  ILE22       0.1561
     15  C         57.6840   36.4310   24.5080 C.2    22  ILE22       0.2260
     16  O         58.6430   36.5300   25.2720 O.2    22  ILE22      -0.2867
     17  CB        58.5630   36.7580   22.2100 C.3    22  ILE22       0.0252
     18  CG1       58.5250   37.6410   20.9630 C.3    22  ILE22       0.0019
     19  CG2       58.1930   35.3210   21.8790 C.3    22  ILE22       0.0019
     20  CD1       59.5240   37.2330   19.8950 C.3    22  ILE22       0.0001
     21  N         53.8440   38.5540   21.5410 N.3    48  GLN48      -0.1245
     22  CA        53.7410   37.3220   20.7660 C.3    48  GLN48       0.1566
     23  C         53.6250   36.1040   21.6800 C.2    48  GLN48       0.2260
     24  O         54.4770   35.8760   22.5390 O.2    48  GLN48      -0.2867
     25  CB        54.9690   37.1500   19.8590 C.3    48  GLN48       0.0367
     26  CG        54.9390   35.8800   19.0100 C.3    48  GLN48       0.0905
     27  CD        56.2650   35.5970   18.3260 C.2    48  GLN48       0.2608
     28  OE1       56.8610   34.5390   18.5220 O.2    48  GLN48      -0.2717
     29  NE2       56.7310   36.5430   17.5180 N.am   48  GLN48      -0.0878
     30  N         54.1630   32.5390   22.2730 N.3    50  ARG50      -0.1245
     31  CA        55.0380   31.5040   21.7310 C.3    50  ARG50       0.1563
     32  C         55.1740   30.4160   22.7850 C.2    50  ARG50       0.2260
     33  O         55.8850   30.5770   23.7710 O.2    50  ARG50      -0.2867
     34  CB        56.4060   32.1060   21.3880 C.3    50  ARG50       0.0307
     35  CG        57.4140   31.1230   20.7990 C.3    50  ARG50       0.0489
     36  CD        58.7080   31.8390   20.4140 C.3    50  ARG50       0.2205
     37  NE        59.7290   30.9230   19.9080 N.pl3  50  ARG50      -0.0865
     38  CZ        60.5090   30.1700   20.6780 C.cat  50  ARG50       0.5346
     39  NH1       60.3950   30.2220   22.0000 N.pl3  50  ARG50       0.1354
     40  NH2       61.4020   29.3610   20.1220 N.pl3  50  ARG50       0.1354
     41  N         52.5320   32.7560   17.4730 N.3    83  ASN83      -0.1240
     42  CA        53.6720   32.1680   16.7630 C.3    83  ASN83       0.1653
     43  C         53.3570   30.7900   16.1820 C.2    83  ASN83       0.2266
     44  O         52.6940   29.9850   16.8260 O.2    83  ASN83      -0.2867
     45  CB        54.8800   32.0390   17.6990 C.3    83  ASN83       0.1155
     46  CG        56.1120   31.4920   16.9900 C.2    83  ASN83       0.2627
     47  OD1       56.6300   32.1140   16.0650 O.2    83  ASN83      -0.2716
     48  ND2       56.5810   30.3220   17.4180 N.am   83  ASN83      -0.0877
     49  N         53.0710   35.0540   13.4330 N.3    98  HIS98      -0.1241
     50  CA        54.4910   35.1260   13.1190 C.3    98  HIS98       0.1621
     51  C         54.9650   33.7480   12.6810 C.2    98  HIS98       0.2264
     52  O         54.6950   32.7460   13.3480 O.2    98  HIS98      -0.2867
     53  CB        55.3230   35.5600   14.3300 C.3    98  HIS98       0.0745
     54  CG        56.7830   35.6710   14.0200 C.ar   98  HIS98       0.0817
     55  ND1       57.3350   36.7990   13.4510 N.ar   98  HIS98      -0.2268
     56  CD2       57.7720   34.7460   14.0590 C.ar   98  HIS98       0.1154
     57  CE1       58.5980   36.5600   13.1430 C.ar   98  HIS98       0.1986
     58  NE2       58.8880   35.3220   13.5020 N.ar   98  HIS98      -0.2212
     59  N         60.3070   35.5210    9.9950 N.3   121  ALA121     -0.1245
     60  CA        61.6880   35.5470   10.4710 C.3   121  ALA121      0.1562
     61  C         62.5990   35.3650    9.2570 C.2   121  ALA121      0.2260
     62  O         62.3520   34.4990    8.4210 O.2   121  ALA121     -0.2867
     63  CB        61.9260   34.4220   11.4750 C.3   121  ALA121      0.0290
     64  N         56.1230   42.6720    8.4390 N.3   138  TYR138     -0.1241
     65  CA        57.3830   42.9680    9.1190 C.3   138  TYR138      0.1605
     66  C         58.2810   41.7340    9.1010 C.2   138  TYR138      0.2264
     67  O         57.8100   40.6060    8.9200 O.2   138  TYR138     -0.2867
     68  CB        57.1500   43.4190   10.5750 C.3   138  TYR138      0.0534
     69  CG        56.8820   42.2960   11.5660 C.ar  138  TYR138     -0.0201
     70  CD1       57.9260   41.5180   12.0750 C.ar  138  TYR138     -0.0009
     71  CD2       55.5850   42.0040   11.9800 C.ar  138  TYR138     -0.0009
     72  CE1       57.6810   40.4730   12.9720 C.ar  138  TYR138      0.0417
     73  CE2       55.3300   40.9630   12.8750 C.ar  138  TYR138      0.0417
     74  CZ        56.3800   40.2040   13.3650 C.ar  138  TYR138      0.1957
     75  OH        56.1230   39.1740   14.2410 O.3   138  TYR138     -0.2866
     76  N         61.5320   39.6590   11.1780 N.3   140  GLY140     -0.1225
     77  CA        62.2810   39.5320   12.4150 C.3   140  GLY140      0.1811
     78  C         63.6730   39.0690   12.0380 C.2   140  GLY140      0.2280
     79  O         63.8450   37.9480   11.5630 O.2   140  GLY140     -0.2866
     80  N         67.6320   38.1420   12.9850 N.3   142  GLY142     -0.1210
     81  CA        68.5050   37.7260   14.0700 C.3   142  GLY142      0.1940
     82  C         69.1340   36.3690   13.8050 C.2   142  GLY142      0.2453
     83  O         68.9940   35.8330   12.7050 O.2   142  GLY142     -0.2732
     84  N         69.8400   35.7860   14.7890 N.am  143  PRO143     -0.2728
     85  CA        70.0750   36.3330   16.1300 C.3   143  PRO143      0.1401
     86  C         71.0980   37.4610   16.0930 C.2   143  PRO143      0.2269
     87  O         72.1720   37.3110   15.5100 O.2   143  PRO143     -0.2865
     88  CB        70.6120   35.1300   16.9170 C.3   143  PRO143      0.0296
     89  CG        70.1920   33.9360   16.1120 C.3   143  PRO143      0.0237
     90  CD        70.3470   34.4080   14.6980 C.3   143  PRO143      0.0939
     91  N         72.1290   33.7350   22.0950 N.3   147  THR147     -0.1218
     92  CA        70.9370   33.4280   22.8740 C.3   147  THR147      0.1862
     93  C         70.7610   31.9240   23.0120 C.2   147  THR147      0.2287
     94  O         71.0960   31.1670   22.1030 O.2   147  THR147     -0.2866
     95  CB        69.6710   34.0100   22.2180 C.3   147  THR147      0.1770
     96  OG1       68.5110   33.5350   22.9160 O.3   147  THR147     -0.2211
     97  CG2       69.5900   33.5980   20.7530 C.3   147  THR147      0.0375
     98  N         67.7290   30.8830   24.6850 N.3   149  THR149     -0.1203
     99  CA        66.2970   30.7600   24.9360 C.3   149  THR149      0.1994
    100  C         65.6770   29.8710   23.8690 C.2   149  THR149      0.2617
    101  O         64.8690   28.9880   24.1710 O.2   149  THR149     -0.2717
    102  CB        65.6130   32.1350   24.9220 C.3   149  THR149      0.1784
    103  OG1       66.2130   32.9670   25.9220 O.3   149  THR149     -0.2211
    104  CG2       64.1230   31.9960   25.2160 C.3   149  THR149      0.0376
    105  N         66.0530   30.1190   22.6190 N.am  150  LYS150     -0.1979
    106  CA        65.5730   29.3140   21.5070 C.3   150  LYS150      0.1596
    107  C         66.6810   28.3150   21.1950 C.2   150  LYS150      0.2287
    108  O         67.8120   28.7020   20.8990 O.2   150  LYS150     -0.2864
    109  CB        65.2860   30.1790   20.2780 C.3   150  LYS150      0.0298
    110  CG        65.0050   29.3620   19.0220 C.3   150  LYS150      0.0038
    111  CD        64.6140   30.2370   17.8440 C.3   150  LYS150      0.0206
    112  CE        64.6020   29.4390   16.5450 C.3   150  LYS150      0.1093
    113  NZ        63.7310   28.2300   16.6110 N.3   150  LYS150     -0.1314
    114  N         69.0230   27.8770   16.7750 N.3   153  THR153     -0.1218
    115  CA        69.0440   29.2040   16.1660 C.3   153  THR153      0.1862
    116  C         70.1490   29.2990   15.1190 C.2   153  THR153      0.2287
    117  O         71.1610   28.6010   15.2060 O.2   153  THR153     -0.2866
    118  CB        69.2780   30.3150   17.2180 C.3   153  THR153      0.1770
    119  OG1       70.5480   30.1180   17.8510 O.3   153  THR153     -0.2211
    120  CG2       68.1830   30.2950   18.2720 C.3   153  THR153      0.0375
    121  N         62.3050   44.2500   12.9990 N.3   175  VAL175     -0.1245
    122  CA        62.4670   44.1390   14.4440 C.3   175  VAL175      0.1561
    123  C         63.6640   43.2060   14.6210 C.2   175  VAL175      0.2260
    124  O         63.7620   42.1750   13.9510 O.2   175  VAL175     -0.2867
    125  CB        61.2010   43.5630   15.1760 C.3   175  VAL175      0.0252
    126  CG1       60.9470   42.1080   14.7730 C.3   175  VAL175      0.0019
    127  CG2       61.3950   43.6580   16.6960 C.3   175  VAL175      0.0019
    128  N         66.0920   40.6730   16.8810 N.3   177  ILE177     -0.1231
    129  CA        65.8730   39.7160   17.9590 C.3   177  ILE177      0.1692
    130  C         67.0860   38.8230   18.2160 C.2   177  ILE177      0.2593
    131  O         67.9130   38.6030   17.3240 O.2   177  ILE177     -0.2718
    132  CB        64.6510   38.8200   17.6500 C.3   177  ILE177      0.0266
    133  CG1       64.2930   37.9860   18.8810 C.3   177  ILE177      0.0019
    134  CG2       64.9560   37.9220   16.4590 C.3   177  ILE177      0.0020
    135  CD1       62.9800   37.2460   18.7600 C.3   177  ILE177      0.0001
    136  N         67.1910   38.3240   19.4460 N.am  178  GLY178     -0.1942
    137  CA        68.2900   37.4440   19.8030 C.3   178  GLY178      0.2014
    138  C         69.2340   38.0180   20.8400 C.2   178  GLY178      0.2639
    139  O         70.1000   38.8280   20.5150 O.2   178  GLY178     -0.2714
    140  N         69.0520   37.6050   22.0920 N.am  179  GLY179     -0.1939
    141  CA        69.9030   38.0640   23.1770 C.3   179  GLY179      0.2014
    142  C         69.9110   39.5580   23.4410 C.2   179  GLY179      0.2638
    143  O         70.8890   40.0920   23.9740 O.2   179  GLY179     -0.2714
    144  N         68.8280   40.2420   23.0840 N.am  180  ILE180     -0.1977
    145  CA        68.7450   41.6800   23.2980 C.3   180  ILE180      0.1596
    146  C         68.4210   42.0270   24.7500 C.2   180  ILE180      0.2287
    147  O         67.5410   41.4200   25.3700 O.2   180  ILE180     -0.2864
    148  CB        67.6940   42.3160   22.3640 C.3   180  ILE180      0.0276
    149  CG1       68.1060   42.0720   20.9070 C.3   180  ILE180      0.0022
    150  CG2       67.5640   43.8160   22.6530 C.3   180  ILE180      0.0022
    151  CD1       67.1520   42.6420   19.8790 C.3   180  ILE180      0.0001
    152  N         62.9280   42.9380   19.9010 N.3   197  SER197     -0.1202
    153  CA        62.0520   41.9050   20.4360 C.3   197  SER197      0.2020
    154  C         62.8870   41.1040   21.4240 C.2   197  SER197      0.2619
    155  O         64.0890   40.9240   21.2250 O.2   197  SER197     -0.2717
    156  CB        61.5440   41.0010   19.3080 C.3   197  SER197      0.2103
    157  OG        60.6570   40.0220   19.8140 O.3   197  SER197     -0.2182
    158  N         62.2610   40.6290   22.4950 N.am  198  MET198     -0.1965
    159  CA        63.0010   39.8800   23.4960 C.3   198  MET198      0.1736
    160  C         62.1140   38.9620   24.3060 C.2   198  MET198      0.2616
    161  O         60.8990   39.1430   24.3660 O.2   198  MET198     -0.2715
    162  CB        63.7140   40.8420   24.4560 C.3   198  MET198      0.0427
    163  CG        62.8070   41.5490   25.4820 C.3   198  MET198      0.0599
    164  SD        61.4450   42.5450   24.7920 S.3   198  MET198     -0.1393
    165  CE        62.3710   43.8810   23.9750 C.3   198  MET198      0.0692
    166  N         62.7450   37.9710   24.9270 N.am  199  ILE199     -0.1963
    167  CA        62.0430   37.0440   25.7940 C.3   199  ILE199      0.1727
    168  C         62.6250   37.1600   27.2010 C.2   199  ILE199      0.2617
    169  O         62.0390   37.8130   28.0640 O.2   199  ILE199     -0.2715
    170  CB        62.1650   35.5720   25.3200 C.3   199  ILE199      0.0290
    171  CG1       61.5050   35.4050   23.9490 C.3   199  ILE199      0.0022
    172  CG2       61.4960   34.6470   26.3440 C.3   199  ILE199      0.0023
    173  CD1       61.5140   33.9710   23.4080 C.3   199  ILE199      0.0001
    174  N         63.8040   36.5750   27.4120 N.am  200  SER200     -0.1936
    175  CA        64.4370   36.5570   28.7320 C.3   200  SER200      0.2055
    176  C         64.7110   37.8780   29.4500 C.2   200  SER200      0.2642
    177  O         64.6110   37.9350   30.6770 O.2   200  SER200     -0.2714
    178  CB        65.7330   35.7350   28.6830 C.3   200  SER200      0.2130
    179  OG        66.7110   36.3440   27.8610 O.3   200  SER200     -0.2179
    180  N         65.0620   38.9280   28.7140 N.am  201  ALA201     -0.1977
    181  CA        65.3510   40.2160   29.3410 C.3   201  ALA201      0.1597
    182  C         64.1690   40.7190   30.1650 C.2   201  ALA201      0.2287
    183  O         64.3470   41.4480   31.1430 O.2   201  ALA201     -0.2864
    184  CB        65.7380   41.2530   28.2760 C.3   201  ALA201      0.0319
@<TRIPOS>BOND
     1    62    61    2
     2    64    65    1
     3    67    66    2
     4    66    65    1
     5    65    68    1
     6    61    60    1
     7    59    60    1
     8    60    63    1
     9    68    69    1
    10    76    77    1
    11    79    78    2
    12    69    71   ar
    13    69    70   ar
    14    71    73   ar
    15    78    77    1
    16    70    72   ar
    17    51    50    1
    18    51    52    2
    19    83    82    2
    20    73    74   ar
    21    72    74   ar
    22    80    81    1
    23   121   122    1
    24    50    49    1
    25    50    53    1
    26    57    55   ar
    27    57    58   ar
    28    74    75    1
    29    55    54   ar
    30    58    56   ar
    31    82    81    1
    32    82    84   am
    33   124   123    2
    34    54    56   ar
    35    54    53    1
    36   122   123    1
    37   122   125    1
    38    90    84    1
    39    90    89    1
    40   126   125    1
    41    84    85    1
    42   116   117    2
    43   116   115    1
    44   125   127    1
    45    87    86    2
    46    47    46    2
    47    86    85    1
    48    89    88    1
    49    85    88    1
    50   115   114    1
    51   115   118    1
    52    43    42    1
    53    43    44    2
    54   134   132    1
    55   112   113    1
    56   112   111    1
    57    42    41    1
    58    42    45    1
    59    12    11    1
    60    10    11   ar
    61    10     8   ar
    62   128   129    1
    63    46    48   am
    64    46    45    1
    65   118   119    1
    66   118   120    1
    67   131   130    2
    68    11     9   ar
    69    29    27   am
    70     8     6   ar
    71   132   129    1
    72   132   133    1
    73   111   110    1
    74   129   130    1
    75   130   136   am
    76    27    28    2
    77    27    26    1
    78   135   133    1
    79     9     7   ar
    80     6     7   ar
    81     6     5    1
    82    26    25    1
    83   110   109    1
    84   156   157    1
    85   156   153    1
    86   136   137    1
    87     5     2    1
    88   137   138    1
    89    25    22    1
    90   151   149    1
    91    20    18    1
    92   152   153    1
    93    37    36    1
    94    37    38    2
    95    40    38    1
    96   109   106    1
    97    36    35    1
    98   153   154    1
    99   139   138    2
   100    38    39    1
   101    97    95    1
   102    22    21    1
   103    22    23    1
   104    35    34    1
   105   138   140   am
   106   108   107    2
   107   149   148    1
   108    18    17    1
   109     2     1    1
   110     2     3    1
   111   107   106    1
   112   155   154    2
   113    34    31    1
   114   154   158   am
   115   106   105    1
   116    23    24    2
   117    31    30    1
   118    31    32    1
   119     4     3    2
   120    19    17    1
   121   140   141    1
   122    91    92    1
   123    94    93    2
   124    17    14    1
   125    95    92    1
   126    95    96    1
   127   148   150    1
   128   148   145    1
   129   158   159    1
   130   105   100   am
   131    32    33    2
   132    92    93    1
   133   144   145    1
   134   144   142   am
   135   141   142    1
   136    14    13    1
   137    14    15    1
   138   145   146    1
   139   173   171    1
   140   142   143    2
   141   159   160    1
   142   159   162    1
   143   100   101    2
   144   100    99    1
   145   171   170    1
   146   165   164    1
   147   160   161    2
   148   160   166   am
   149   162   163    1
   150    15    16    2
   151    98    99    1
   152   146   147    2
   153   164   163    1
   154   102    99    1
   155   102   104    1
   156   102   103    1
   157   166   167    1
   158   170   167    1
   159   170   172    1
   160   167   168    1
   161   168   174   am
   162   168   169    2
   163   174   175    1
   164   179   178    1
   165   184   181    1
   166   178   175    1
   167   180   181    1
   168   180   176   am
   169   175   176    1
   170   181   182    1
   171   176   177    2
   172   182   183    2
