@<TRIPOS>MOLECULE
tmp/1g4tB00.pdb
 195 183 0 0 0
SMALL
GASTEIGER

@<TRIPOS>ATOM
      1  N         58.8550   44.4450   21.4690 N.3    21  TYR21      -0.1241
      2  CA        58.0880   43.2470   21.1240 C.3    21  TYR21       0.1605
      3  C         58.4040   42.0640   22.0430 C.2    21  TYR21       0.2264
      4  O         59.3720   41.3350   21.8260 O.2    21  TYR21      -0.2867
      5  CB        58.4130   42.9230   19.6610 C.3    21  TYR21       0.0534
      6  CG        57.5370   41.9180   18.9450 C.ar   21  TYR21      -0.0201
      7  CD1       56.5270   41.2160   19.6050 C.ar   21  TYR21      -0.0009
      8  CD2       57.7430   41.6580   17.5890 C.ar   21  TYR21      -0.0009
      9  CE1       55.7460   40.2760   18.9250 C.ar   21  TYR21       0.0417
     10  CE2       56.9740   40.7300   16.9070 C.ar   21  TYR21       0.0417
     11  CZ        55.9800   40.0400   17.5760 C.ar   21  TYR21       0.1957
     12  OH        55.2370   39.1100   16.8830 O.3    21  TYR21      -0.2866
     13  N         57.9260   38.4120   23.7100 N.3    23  ILE23      -0.1245
     14  CA        57.5040   37.0700   23.3110 C.3    23  ILE23       0.1561
     15  C         57.6170   36.1680   24.5350 C.2    23  ILE23       0.2260
     16  O         58.6180   36.2160   25.2540 O.2    23  ILE23      -0.2867
     17  CB        58.4230   36.5010   22.1950 C.3    23  ILE23       0.0252
     18  CG1       58.3870   37.4210   20.9690 C.3    23  ILE23       0.0019
     19  CG2       58.0040   35.0720   21.8480 C.3    23  ILE23       0.0019
     20  CD1       59.2540   36.9490   19.8160 C.3    23  ILE23       0.0001
     21  N         53.7660   38.3490   21.5780 N.3    49  GLN49      -0.1245
     22  CA        53.6110   37.1180   20.8130 C.3    49  GLN49       0.1566
     23  C         53.4910   35.9020   21.7270 C.2    49  GLN49       0.2260
     24  O         54.3300   35.6820   22.5990 O.2    49  GLN49      -0.2867
     25  CB        54.7980   36.9250   19.8580 C.3    49  GLN49       0.0367
     26  CG        54.7590   35.6090   19.0770 C.3    49  GLN49       0.0905
     27  CD        56.0380   35.3460   18.2930 C.2    49  GLN49       0.2608
     28  OE1       56.6050   34.2600   18.3680 O.2    49  GLN49      -0.2717
     29  NE2       56.4890   36.3390   17.5290 N.am   49  GLN49      -0.0878
     30  N         54.0190   32.3250   22.2620 N.3    51  ARG51      -0.1245
     31  CA        54.8860   31.2800   21.7270 C.3    51  ARG51       0.1563
     32  C         55.0130   30.2140   22.8030 C.2    51  ARG51       0.2260
     33  O         55.7120   30.3990   23.7960 O.2    51  ARG51      -0.2867
     34  CB        56.2560   31.8700   21.3860 C.3    51  ARG51       0.0307
     35  CG        57.2390   30.8760   20.7900 C.3    51  ARG51       0.0489
     36  CD        58.5460   31.5650   20.4390 C.3    51  ARG51       0.2205
     37  NE        59.5400   30.6290   19.9220 N.pl3  51  ARG51      -0.0865
     38  CZ        60.3230   29.8720   20.6830 C.cat  51  ARG51       0.5346
     39  NH1       60.2350   29.9370   22.0050 N.pl3  51  ARG51       0.1354
     40  NH2       61.1990   29.0490   20.1200 N.pl3  51  ARG51       0.1354
     41  N         52.3260   32.5800   17.4900 N.3    84  ASN84      -0.1240
     42  CA        53.4450   31.9860   16.7650 C.3    84  ASN84       0.1653
     43  C         53.0760   30.6270   16.1750 C.2    84  ASN84       0.2266
     44  O         52.4020   29.8280   16.8230 O.2    84  ASN84      -0.2867
     45  CB        54.6540   31.8070   17.6880 C.3    84  ASN84       0.1155
     46  CG        55.9010   31.3700   16.9340 C.2    84  ASN84       0.2627
     47  OD1       56.3640   32.0640   16.0280 O.2    84  ASN84      -0.2716
     48  ND2       56.4480   30.2190   17.3040 N.am   84  ASN84      -0.0877
     49  N         52.9370   34.8770   13.4570 N.3    99  HIS99      -0.1241
     50  CA        54.3470   34.9110   13.1030 C.3    99  HIS99       0.1621
     51  C         54.7620   33.5070   12.6710 C.2    99  HIS99       0.2264
     52  O         54.4210   32.5250   13.3280 O.2    99  HIS99      -0.2867
     53  CB        55.2170   35.3480   14.2820 C.3    99  HIS99       0.0745
     54  CG        56.6450   35.5650   13.8980 C.ar   99  HIS99       0.0817
     55  ND1       57.1040   36.7700   13.4100 N.ar   99  HIS99      -0.2268
     56  CD2       57.6830   34.6990   13.8020 C.ar   99  HIS99       0.1154
     57  CE1       58.3610   36.6350   13.0240 C.ar   99  HIS99       0.1986
     58  NE2       58.7360   35.3880   13.2500 N.ar   99  HIS99      -0.2212
     59  N         60.1320   35.1630   10.0080 N.3   122  SER122     -0.1217
     60  CA        61.5310   35.1200   10.4500 C.3   122  SER122      0.1889
     61  C         62.3970   34.9610    9.2010 C.2   122  SER122      0.2288
     62  O         62.1100   34.1180    8.3460 O.2   122  SER122     -0.2866
     63  CB        61.7710   33.9300   11.3860 C.3   122  SER122      0.2089
     64  OG        61.0660   34.0720   12.6060 O.3   122  SER122     -0.2183
     65  N         66.6990   35.1730    7.6760 N.3   124  HIS124     -0.1241
     66  CA        68.0970   35.1730    8.0800 C.3   124  HIS124      0.1621
     67  C         69.0730   35.5020    6.9560 C.2   124  HIS124      0.2264
     68  O         70.2850   35.5690    7.1790 O.2   124  HIS124     -0.2867
     69  CB        68.4340   33.8220    8.7070 C.3   124  HIS124      0.0745
     70  CG        67.3710   33.3170    9.6350 C.ar  124  HIS124      0.0817
     71  ND1       66.2190   32.7080    9.1830 N.ar  124  HIS124     -0.2268
     72  CD2       67.2590   33.3780   10.9840 C.ar  124  HIS124      0.1154
     73  CE1       65.4460   32.4130   10.2130 C.ar  124  HIS124      0.1986
     74  NE2       66.0540   32.8100   11.3170 N.ar  124  HIS124     -0.2212
     75  N         56.0510   42.4340    8.3990 N.3   139  TYR139     -0.1241
     76  CA        57.3200   42.7080    9.0740 C.3   139  TYR139      0.1605
     77  C         58.1670   41.4450    9.0670 C.2   139  TYR139      0.2264
     78  O         57.6600   40.3410    8.8410 O.2   139  TYR139     -0.2867
     79  CB        57.0950   43.1840   10.5240 C.3   139  TYR139      0.0534
     80  CG        56.7550   42.0950   11.5290 C.ar  139  TYR139     -0.0201
     81  CD1       57.7580   41.3250   12.1230 C.ar  139  TYR139     -0.0009
     82  CD2       55.4320   41.8310   11.8780 C.ar  139  TYR139     -0.0009
     83  CE1       57.4500   40.3150   13.0420 C.ar  139  TYR139      0.0417
     84  CE2       55.1150   40.8260   12.7920 C.ar  139  TYR139      0.0417
     85  CZ        56.1240   40.0730   13.3670 C.ar  139  TYR139      0.1957
     86  OH        55.7960   39.0530   14.2320 O.3   139  TYR139     -0.2866
     87  N         61.4350   39.3430   11.2020 N.3   141  GLY141     -0.1225
     88  CA        62.2000   39.2320   12.4320 C.3   141  GLY141      0.1811
     89  C         63.5680   38.7190   12.0370 C.2   141  GLY141      0.2280
     90  O         63.6910   37.6040   11.5270 O.2   141  GLY141     -0.2866
     91  N         67.5600   37.7290   12.9740 N.3   143  GLY143     -0.1210
     92  CA        68.4240   37.3100   14.0580 C.3   143  GLY143      0.1940
     93  C         68.9610   35.9160   13.8110 C.2   143  GLY143      0.2453
     94  O         68.7960   35.3780   12.7140 O.2   143  GLY143     -0.2732
     95  N         69.6210   35.3080   14.8110 N.am  144  PRO144     -0.2728
     96  CA        69.8450   35.9330   16.1170 C.3   144  PRO144      0.1401
     97  C         70.9070   37.0280   16.0420 C.2   144  PRO144      0.2269
     98  O         71.9570   36.8460   15.4180 O.2   144  PRO144     -0.2865
     99  CB        70.2660   34.7550   16.9950 C.3   144  PRO144      0.0296
    100  CG        70.9540   33.8520   16.0370 C.3   144  PRO144      0.0237
    101  CD        70.0710   33.9030   14.8140 C.3   144  PRO144      0.0939
    102  N         72.0410   33.3060   22.0220 N.3   148  THR148     -0.1218
    103  CA        70.8350   32.9900   22.7820 C.3   148  THR148      0.1862
    104  C         70.6580   31.4870   22.9280 C.2   148  THR148      0.2287
    105  O         70.9800   30.7210   22.0200 O.2   148  THR148     -0.2866
    106  CB        69.5690   33.5490   22.1080 C.3   148  THR148      0.1770
    107  OG1       68.4130   33.1300   22.8470 O.3   148  THR148     -0.2211
    108  CG2       69.4530   33.0390   20.6780 C.3   148  THR148      0.0375
    109  N         67.6060   30.4610   24.5590 N.3   150  THR150     -0.1203
    110  CA        66.1710   30.3320   24.7980 C.3   150  THR150      0.1994
    111  C         65.5380   29.4680   23.7140 C.2   150  THR150      0.2617
    112  O         64.6360   28.6710   23.9860 O.2   150  THR150     -0.2717
    113  CB        65.5000   31.7110   24.8350 C.3   150  THR150      0.1784
    114  OG1       66.1020   32.4920   25.8740 O.3   150  THR150     -0.2211
    115  CG2       64.0030   31.5720   25.1170 C.3   150  THR150      0.0376
    116  N         66.0050   29.6560   22.4830 N.am  151  LYS151     -0.1979
    117  CA        65.5690   28.8640   21.3370 C.3   151  LYS151      0.1596
    118  C         66.8370   28.0850   20.9930 C.2   151  LYS151      0.2287
    119  O         67.8770   28.6850   20.7200 O.2   151  LYS151     -0.2864
    120  CB        65.1570   29.7620   20.1640 C.3   151  LYS151      0.0298
    121  CG        64.8340   28.9970   18.8810 C.3   151  LYS151      0.0038
    122  CD        64.3390   29.9250   17.7790 C.3   151  LYS151      0.0206
    123  CE        64.3080   29.2300   16.4190 C.3   151  LYS151      0.1093
    124  NZ        63.4240   28.0330   16.3940 N.3   151  LYS151     -0.1314
    125  N         68.6180   27.4670   16.5810 N.3   154  THR154     -0.1218
    126  CA        68.7680   28.7690   15.9420 C.3   154  THR154      0.1862
    127  C         69.8700   28.8020   14.8890 C.2   154  THR154      0.2287
    128  O         70.8090   28.0060   14.9270 O.2   154  THR154     -0.2866
    129  CB        69.0650   29.8640   16.9880 C.3   154  THR154      0.1770
    130  OG1       69.1850   31.1320   16.3330 O.3   154  THR154     -0.2211
    131  CG2       70.3600   29.5590   17.7280 C.3   154  THR154      0.0375
    132  N         62.3070   43.9250   12.9640 N.3   176  VAL176     -0.1245
    133  CA        62.4940   43.8150   14.4050 C.3   176  VAL176      0.1561
    134  C         63.6790   42.8650   14.5970 C.2   176  VAL176      0.2260
    135  O         63.7750   41.8330   13.9240 O.2   176  VAL176     -0.2867
    136  CB        61.2340   43.2690   15.1590 C.3   176  VAL176      0.0252
    137  CG1       60.9140   41.8400   14.7240 C.3   176  VAL176      0.0019
    138  CG2       61.4780   43.3240   16.6720 C.3   176  VAL176      0.0019
    139  N         66.0010   40.2700   16.9260 N.3   178  ILE178     -0.1231
    140  CA        65.7570   39.3270   18.0150 C.3   178  ILE178      0.1692
    141  C         66.9750   38.4370   18.2740 C.2   178  ILE178      0.2593
    142  O         67.7720   38.1730   17.3680 O.2   178  ILE178     -0.2718
    143  CB        64.5290   38.4240   17.6990 C.3   178  ILE178      0.0266
    144  CG1       64.1850   37.5430   18.9040 C.3   178  ILE178      0.0019
    145  CG2       64.8290   37.5470   16.4880 C.3   178  ILE178      0.0020
    146  CD1       62.8040   36.9030   18.8110 C.3   178  ILE178      0.0001
    147  N         67.1090   37.9830   19.5170 N.am  179  GLY179     -0.1942
    148  CA        68.2090   37.1060   19.8760 C.3   179  GLY179      0.2014
    149  C         69.1850   37.6740   20.8880 C.2   179  GLY179      0.2639
    150  O         70.0430   38.4780   20.5370 O.2   179  GLY179     -0.2714
    151  N         69.0490   37.2650   22.1470 N.am  180  GLY180     -0.1939
    152  CA        69.9540   37.7320   23.1840 C.3   180  GLY180      0.2014
    153  C         69.9580   39.2290   23.4260 C.2   180  GLY180      0.2638
    154  O         70.9430   39.7830   23.9240 O.2   180  GLY180     -0.2714
    155  N         68.8580   39.8910   23.0950 N.am  181  ILE181     -0.1977
    156  CA        68.7840   41.3320   23.2840 C.3   181  ILE181      0.1596
    157  C         68.4670   41.7120   24.7260 C.2   181  ILE181      0.2287
    158  O         67.5700   41.1430   25.3540 O.2   181  ILE181     -0.2864
    159  CB        67.7410   41.9600   22.3380 C.3   181  ILE181      0.0276
    160  CG1       68.1510   41.7010   20.8830 C.3   181  ILE181      0.0022
    161  CG2       67.6320   43.4610   22.6090 C.3   181  ILE181      0.0022
    162  CD1       67.1920   42.2610   19.8460 C.3   181  ILE181      0.0001
    163  N         62.9910   42.6290   19.9310 N.3   198  SER198     -0.1202
    164  CA        62.1160   41.6100   20.4880 C.3   198  SER198      0.2020
    165  C         62.9460   40.8090   21.4720 C.2   198  SER198      0.2619
    166  O         64.1440   40.6020   21.2620 O.2   198  SER198     -0.2717
    167  CB        61.5820   40.7000   19.3820 C.3   198  SER198      0.2103
    168  OG        60.7550   39.6880   19.9290 O.3   198  SER198     -0.2182
    169  N         62.3120   40.3540   22.5460 N.am  199  MET199     -0.1965
    170  CA        63.0320   39.6160   23.5650 C.3   199  MET199      0.1736
    171  C         62.1400   38.6810   24.3550 C.2   199  MET199      0.2616
    172  O         60.9270   38.8630   24.4170 O.2   199  MET199     -0.2715
    173  CB        63.6870   40.5950   24.5440 C.3   199  MET199      0.0427
    174  CG        62.7130   41.2890   25.5190 C.3   199  MET199      0.0599
    175  SD        61.4070   42.3220   24.7710 S.3   199  MET199     -0.1393
    176  CE        62.4070   43.6470   24.0490 C.3   199  MET199      0.0692
    177  N         62.7570   37.6720   24.9550 N.am  200  ILE200     -0.1963
    178  CA        62.0320   36.7480   25.8020 C.3   200  ILE200      0.1727
    179  C         62.5920   36.8520   27.2170 C.2   200  ILE200      0.2617
    180  O         61.9910   37.4940   28.0770 O.2   200  ILE200     -0.2715
    181  CB        62.1380   35.2750   25.3210 C.3   200  ILE200      0.0290
    182  CG1       61.4930   35.1350   23.9350 C.3   200  ILE200      0.0022
    183  CG2       61.4350   34.3490   26.3340 C.3   200  ILE200      0.0023
    184  CD1       61.3700   33.6950   23.4280 C.3   200  ILE200      0.0001
    185  N         63.7680   36.2680   27.4360 N.am  201  SER201     -0.1936
    186  CA        64.3820   36.2340   28.7610 C.3   201  SER201      0.2055
    187  C         64.7050   37.5560   29.4520 C.2   201  SER201      0.2642
    188  O         64.5840   37.6520   30.6740 O.2   201  SER201     -0.2714
    189  CB        65.6380   35.3540   28.7300 C.3   201  SER201      0.2130
    190  OG        66.6250   35.8870   27.8670 O.3   201  SER201     -0.2179
    191  N         65.1190   38.5680   28.6970 N.am  202  ALA202     -0.1977
    192  CA        65.4480   39.8520   29.3090 C.3   202  ALA202      0.1597
    193  C         64.2920   40.3820   30.1570 C.2   202  ALA202      0.2287
    194  O         64.5070   41.1220   31.1210 O.2   202  ALA202     -0.2864
    195  CB        65.8240   40.8690   28.2400 C.3   202  ALA202      0.0319
@<TRIPOS>BOND
     1    67    68    2
     2    67    66    1
     3    65    66    1
     4    66    69    1
     5    62    61    2
     6    75    76    1
     7    69    70    1
     8    78    77    2
     9    77    76    1
    10    76    79    1
    11    71    70   ar
    12    71    73   ar
    13    61    60    1
    14    70    72   ar
    15    59    60    1
    16    73    74   ar
    17    60    63    1
    18    79    80    1
    19    72    74   ar
    20    87    88    1
    21    63    64    1
    22    90    89    2
    23    80    82   ar
    24    80    81   ar
    25    82    84   ar
    26    89    88    1
    27    81    83   ar
    28    51    50    1
    29    51    52    2
    30    94    93    2
    31    84    85   ar
    32   132   133    1
    33    91    92    1
    34    57    58   ar
    35    57    55   ar
    36    83    85   ar
    37    50    49    1
    38    50    53    1
    39    58    56   ar
    40    85    86    1
    41    55    54   ar
    42    56    54   ar
    43    93    92    1
    44    93    95   am
    45    54    53    1
    46   135   134    2
    47   133   134    1
    48   133   136    1
    49   137   136    1
    50    95   101    1
    51    95    96    1
    52   101   100    1
    53   127   128    2
    54   127   126    1
    55   136   138    1
    56    98    97    2
    57   126   125    1
    58   126   129    1
    59    47    46    2
    60   100    99    1
    61    97    96    1
    62    96    99    1
    63    43    42    1
    64    43    44    2
    65   130   129    1
    66   124   123    1
    67   123   122    1
    68   145   143    1
    69    42    41    1
    70    42    45    1
    71    12    11    1
    72    10    11   ar
    73    10     8   ar
    74   139   140    1
    75    46    48   am
    76    46    45    1
    77   129   131    1
    78   142   141    2
    79    29    27   am
    80    11     9   ar
    81     8     6   ar
    82   143   140    1
    83   143   144    1
    84   122   121    1
    85   140   141    1
    86   141   147   am
    87    27    28    2
    88    27    26    1
    89   146   144    1
    90   121   120    1
    91     9     7   ar
    92     6     7   ar
    93     6     5    1
    94    26    25    1
    95   167   168    1
    96   167   164    1
    97   147   148    1
    98     5     2    1
    99    20    18    1
   100   162   160    1
   101    25    22    1
   102   148   149    1
   103    37    36    1
   104    37    38    2
   105   163   164    1
   106    40    38    1
   107   120   117    1
   108    36    35    1
   109   164   165    1
   110   150   149    2
   111   108   106    1
   112    38    39    1
   113   119   118    2
   114    35    34    1
   115    22    21    1
   116    22    23    1
   117   160   159    1
   118   149   151   am
   119    18    17    1
   120   118   117    1
   121     2     1    1
   122     2     3    1
   123   166   165    2
   124   117   116    1
   125    34    31    1
   126   165   169   am
   127    31    30    1
   128    31    32    1
   129    23    24    2
   130     4     3    2
   131    19    17    1
   132   105   104    2
   133   102   103    1
   134   106   103    1
   135   106   107    1
   136   151   152    1
   137    17    14    1
   138   159   161    1
   139   159   156    1
   140   116   111   am
   141   169   170    1
   142   103   104    1
   143    32    33    2
   144   155   156    1
   145   155   153   am
   146   152   153    1
   147   156   157    1
   148    14    13    1
   149    14    15    1
   150   153   154    2
   151   184   182    1
   152   170   171    1
   153   170   173    1
   154   111   112    2
   155   111   110    1
   156   182   181    1
   157   176   175    1
   158   171   172    2
   159   171   177   am
   160    15    16    2
   161   173   174    1
   162   109   110    1
   163   157   158    2
   164   175   174    1
   165   110   113    1
   166   113   115    1
   167   113   114    1
   168   177   178    1
   169   181   178    1
   170   181   183    1
   171   178   179    1
   172   179   185   am
   173   179   180    2
   174   185   186    1
   175   190   189    1
   176   195   192    1
   177   191   192    1
   178   191   187   am
   179   189   186    1
   180   186   187    1
   181   192   193    1
   182   187   188    2
   183   193   194    2
