@<TRIPOS>MOLECULE
tmp/1g51B00.pdb
 212 198 0 0 0
SMALL
GASTEIGER

@<TRIPOS>ATOM
      1  N         23.3980   32.9460   23.0770 N.3   177  GLU177     -0.1245
      2  CA        24.5000   31.9890   23.0150 C.3   177  GLU177      0.1567
      3  C         24.1340   30.8560   22.0490 C.2   177  GLU177      0.2260
      4  O         24.8560   29.8530   21.9150 O.2   177  GLU177     -0.2867
      5  CB        24.8300   31.4040   24.3850 C.3   177  GLU177      0.0388
      6  CG        25.5620   32.3960   25.3080 C.3   177  GLU177      0.1160
      7  CD        26.9340   32.8680   24.7770 C.2   177  GLU177      0.3649
      8  OE1       27.4710   33.8370   25.3540 O.co2 177  GLU177     -0.2457
      9  OE2       27.4740   32.2870   23.7990 O.co2 177  GLU177     -0.2457
     10  N         24.7330   33.0240   29.5740 N.3   199  SER199     -0.1217
     11  CA        26.1290   33.2790   29.9230 C.3   199  SER199      0.1889
     12  C         26.1740   34.6960   30.4920 C.2   199  SER199      0.2288
     13  O         25.1850   35.4310   30.4060 O.2   199  SER199     -0.2866
     14  CB        27.0300   33.2140   28.6910 C.3   199  SER199      0.2089
     15  OG        27.2400   34.4990   28.1290 O.3   199  SER199     -0.2183
     16  N         28.1500   36.9610   29.4030 N.3   201  GLN201     -0.1245
     17  CA        28.7010   37.7450   28.2990 C.3   201  GLN201      0.1566
     18  C         28.5400   39.2670   28.3940 C.2   201  GLN201      0.2260
     19  O         29.5380   39.9690   28.5720 O.2   201  GLN201     -0.2867
     20  CB        28.1440   37.2620   26.9560 C.3   201  GLN201      0.0367
     21  CG        28.8400   37.8950   25.7420 C.3   201  GLN201      0.0905
     22  CD        30.3480   37.5880   25.7030 C.2   201  GLN201      0.2608
     23  OE1       30.7830   36.5040   26.0930 O.2   201  GLN201     -0.2717
     24  NE2       31.1370   38.5330   25.2180 N.am  201  GLN201     -0.0878
     25  N         30.0000   40.7810   31.6510 N.3   204  LYS204     -0.1245
     26  CA        31.4590   40.7280   31.7370 C.3   204  LYS204      0.1561
     27  C         32.0410   41.8550   30.8770 C.2   204  LYS204      0.2260
     28  O         33.0590   42.4590   31.2500 O.2   204  LYS204     -0.2867
     29  CB        31.9940   39.3390   31.3160 C.3   204  LYS204      0.0271
     30  CG        32.0030   39.1060   29.8260 C.3   204  LYS204      0.0035
     31  CD        32.0240   37.6330   29.4570 C.3   204  LYS204      0.0206
     32  CE        33.3800   37.0480   29.5790 C.3   204  LYS204      0.1093
     33  NZ        33.5390   35.8410   28.7130 N.3   204  LYS204     -0.1314
     34  N         20.8120   27.0480   29.6450 N.3   223  ARG223     -0.1245
     35  CA        20.4400   26.9000   28.2440 C.3   223  ARG223      0.1563
     36  C         19.4050   25.7730   28.0810 C.2   223  ARG223      0.2260
     37  O         19.6420   24.6180   28.4710 O.2   223  ARG223     -0.2867
     38  CB        21.7040   26.6370   27.4100 C.3   223  ARG223      0.0307
     39  CG        22.7680   27.7260   27.5800 C.3   223  ARG223      0.0489
     40  CD        23.9610   27.5920   26.6320 C.3   223  ARG223      0.2205
     41  NE        24.9890   28.6000   26.9230 N.pl3 223  ARG223     -0.0865
     42  CZ        26.1450   28.7280   26.2660 C.cat 223  ARG223      0.5346
     43  NH1       26.4620   27.9180   25.2460 N.pl3 223  ARG223      0.1354
     44  NH2       27.0080   29.6580   26.6590 N.pl3 223  ARG223      0.1354
     45  N         18.1350   23.6350   25.7270 N.3   225  GLU225     -0.1245
     46  CA        18.4610   23.1120   24.4080 C.3   225  GLU225      0.1567
     47  C         18.5120   21.6010   24.5440 C.2   225  GLU225      0.2260
     48  O         18.5320   21.0790   25.6680 O.2   225  GLU225     -0.2867
     49  CB        19.8280   23.6580   23.9400 C.3   225  GLU225      0.0388
     50  CG        20.9660   23.4390   24.9750 C.3   225  GLU225      0.1160
     51  CD        22.3180   24.1010   24.6350 C.2   225  GLU225      0.3649
     52  OE1       23.2740   23.9380   25.4290 O.co2 225  GLU225     -0.2457
     53  OE2       22.4360   24.7800   23.5960 O.co2 225  GLU225     -0.2457
     54  N         27.2990   15.6700   27.3200 N.3   230  ASP230     -0.1225
     55  CA        28.1920   16.8000   27.5160 C.3   230  ASP230      0.1805
     56  C         27.3770   18.0820   27.5740 C.2   230  ASP230      0.2598
     57  O         27.9160   19.1740   27.3590 O.2   230  ASP230     -0.2718
     58  CB        29.2510   16.8610   26.4010 C.3   230  ASP230      0.1424
     59  CG        28.6560   17.2020   25.0260 C.2   230  ASP230      0.3668
     60  OD1       27.4160   17.0560   24.8500 O.co2 230  ASP230     -0.2456
     61  OD2       29.4340   17.6110   24.1160 O.co2 230  ASP230     -0.2456
     62  N         26.0820   17.9150   27.8880 N.am  231  ARG231     -0.1966
     63  CA        25.1080   19.0040   28.0080 C.3   231  ARG231      0.1729
     64  C         24.1030   18.8760   29.1620 C.2   231  ARG231      0.2616
     65  O         23.3680   17.8940   29.2630 O.2   231  ARG231     -0.2715
     66  CB        24.2720   19.1460   26.7470 C.3   231  ARG231      0.0348
     67  CG        24.9560   19.7710   25.5930 C.3   231  ARG231      0.0492
     68  CD        23.9210   20.1890   24.5940 C.3   231  ARG231      0.2205
     69  NE        24.5090   20.8410   23.4350 N.pl3 231  ARG231     -0.0865
     70  CZ        23.8110   21.2630   22.3840 C.cat 231  ARG231      0.5346
     71  NH1       22.4880   21.0920   22.3440 N.pl3 231  ARG231      0.1354
     72  NH2       24.4300   21.8780   21.3830 N.pl3 231  ARG231      0.1354
     73  N         24.0500   19.8980   30.0100 N.am  232  GLN232     -0.1977
     74  CA        23.0940   19.9250   31.1110 C.3   232  GLN232      0.1601
     75  C         22.2970   21.2030   30.9050 C.2   232  GLN232      0.2287
     76  O         22.7910   22.1560   30.3050 O.2   232  GLN232     -0.2864
     77  CB        23.8330   19.9550   32.4540 C.3   232  GLN232      0.0394
     78  CG        24.2480   18.5960   32.9480 C.3   232  GLN232      0.0908
     79  CD        23.0950   17.8480   33.5080 C.2   232  GLN232      0.2608
     80  OE1       22.4150   18.3330   34.4120 O.2   232  GLN232     -0.2717
     81  NE2       22.8500   16.6410   32.9860 N.am  232  GLN232     -0.0878
     82  N         24.6400   24.4900   33.7020 N.3   235  PHE235     -0.1241
     83  CA        26.0330   24.1020   33.8310 C.3   235  PHE235      0.1605
     84  C         26.9190   25.2560   34.2680 C.2   235  PHE235      0.2264
     85  O         26.4900   26.4010   34.3750 O.2   235  PHE235     -0.2867
     86  CB        26.5410   23.5650   32.5050 C.3   235  PHE235      0.0534
     87  CG        26.4620   24.5640   31.3990 C.ar  235  PHE235     -0.0203
     88  CD1       25.2420   24.8400   30.7780 C.ar  235  PHE235     -0.0042
     89  CD2       27.6080   25.2530   30.9760 C.ar  235  PHE235     -0.0042
     90  CE1       25.1590   25.7870   29.7340 C.ar  235  PHE235     -0.0003
     91  CE2       27.5450   26.2090   29.9370 C.ar  235  PHE235     -0.0003
     92  CZ        26.3110   26.4700   29.3140 C.ar  235  PHE235     -0.0000
     93  N         30.6080   27.4740   33.8840 N.3   237  GLN237     -0.1245
     94  CA        31.7160   27.9460   33.0720 C.3   237  GLN237      0.1566
     95  C         32.7340   28.6560   33.9320 C.2   237  GLN237      0.2260
     96  O         32.3960   29.1910   34.9640 O.2   237  GLN237     -0.2867
     97  CB        31.2530   28.9870   32.0670 C.3   237  GLN237      0.0367
     98  CG        30.2190   28.5830   31.0490 C.3   237  GLN237      0.0905
     99  CD        29.9480   29.7130   30.0450 C.2   237  GLN237      0.2608
    100  OE1       30.1700   30.9150   30.3290 O.2   237  GLN237     -0.2717
    101  NE2       29.4420   29.3380   28.8790 N.am  237  GLN237     -0.0878
    102  N         34.3270   31.7450   33.5860 N.3   239  ASP239     -0.1239
    103  CA        34.1040   32.8890   32.7080 C.3   239  ASP239      0.1674
    104  C         35.1370   33.9480   32.9540 C.2   239  ASP239      0.2266
    105  O         35.3720   34.3230   34.0970 O.2   239  ASP239     -0.2867
    106  CB        32.7130   33.4570   32.9830 C.3   239  ASP239      0.1410
    107  CG        32.2800   34.4380   31.9430 C.2   239  ASP239      0.3668
    108  OD1       31.6370   35.4250   32.3260 O.co2 239  ASP239     -0.2456
    109  OD2       32.5760   34.2180   30.7340 O.co2 239  ASP239     -0.2456
    110  N         29.8450   32.2680   16.9210 N.3   442  HIS442     -0.1226
    111  CA        30.0420   32.1630   18.3840 C.3   442  HIS442      0.1752
    112  C         28.9180   32.9500   19.0880 C.2   442  HIS442      0.2596
    113  O         28.0340   32.3970   19.7410 O.2   442  HIS442     -0.2718
    114  CB        31.4090   32.7490   18.7590 C.3   442  HIS442      0.0759
    115  CG        31.7390   32.6320   20.2140 C.ar  442  HIS442      0.0818
    116  ND1       31.6840   31.4370   20.8960 N.ar  442  HIS442     -0.2268
    117  CD2       32.2000   33.5460   21.0970 C.ar  442  HIS442      0.1154
    118  CE1       32.1050   31.6170   22.1340 C.ar  442  HIS442      0.1986
    119  NE2       32.4250   32.8890   22.2810 N.ar  442  HIS442     -0.2212
    120  N         29.0110   34.2670   18.9800 N.am  443  HIS443     -0.1975
    121  CA        27.9850   35.1580   19.4620 C.3   443  HIS443      0.1656
    122  C         28.1800   36.4960   18.7390 C.2   443  HIS443      0.2291
    123  O         29.2440   36.7700   18.1530 O.2   443  HIS443     -0.2864
    124  CB        27.9470   35.2640   21.0180 C.3   443  HIS443      0.0771
    125  CG        29.2010   35.7810   21.6490 C.ar  443  HIS443      0.0820
    126  ND1       29.8720   36.8950   21.1860 N.ar  443  HIS443     -0.2267
    127  CD2       29.8920   35.3460   22.7270 C.ar  443  HIS443      0.1154
    128  CE1       30.9250   37.1180   21.9480 C.ar  443  HIS443      0.1986
    129  NE2       30.9600   36.1920   22.8910 N.ar  443  HIS443     -0.2212
    130  N         35.3310   20.3610   22.8060 N.3   476  GLU476     -0.1231
    131  CA        35.4430   21.8150   22.9310 C.3   476  GLU476      0.1699
    132  C         35.2590   22.1500   24.4240 C.2   476  GLU476      0.2592
    133  O         34.1390   22.1160   24.9360 O.2   476  GLU476     -0.2718
    134  CB        34.3260   22.4660   22.1130 C.3   476  GLU476      0.0402
    135  CG        34.2090   23.9530   22.2940 C.3   476  GLU476      0.1161
    136  CD        32.8840   24.5300   21.7530 C.2   476  GLU476      0.3649
    137  OE1       32.5020   25.6350   22.2210 O.co2 476  GLU476     -0.2457
    138  OE2       32.2420   23.8970   20.8660 O.co2 476  GLU476     -0.2457
    139  N         36.3530   22.4680   25.1150 N.am  477  VAL477     -0.1966
    140  CA        36.2690   22.7860   26.5270 C.3   477  VAL477      0.1727
    141  C         36.1890   24.2650   26.7940 C.2   477  VAL477      0.2617
    142  O         36.0150   24.6820   27.9490 O.2   477  VAL477     -0.2715
    143  CB        37.4490   22.1570   27.3440 C.3   477  VAL477      0.0290
    144  CG1       37.3230   20.6490   27.3340 C.3   477  VAL477      0.0023
    145  CG2       38.7850   22.5300   26.7680 C.3   477  VAL477      0.0023
    146  N         36.2750   25.0790   25.7480 N.am  478  GLY478     -0.1940
    147  CA        36.2240   26.5200   25.9750 C.3   478  GLY478      0.2014
    148  C         36.1210   27.2510   24.6590 C.2   478  GLY478      0.2639
    149  O         36.4450   26.6900   23.6130 O.2   478  GLY478     -0.2714
    150  N         35.6440   28.4910   24.7120 N.am  479  GLY479     -0.1939
    151  CA        35.5060   29.3130   23.5240 C.3   479  GLY479      0.2014
    152  C         35.4450   30.7800   23.8720 C.2   479  GLY479      0.2639
    153  O         34.8230   31.1120   24.8610 O.2   479  GLY479     -0.2714
    154  N         36.0620   31.6630   23.0830 N.am  480  GLY480     -0.1954
    155  CA        36.0100   33.0860   23.3790 C.3   480  GLY480      0.1869
    156  C         36.3440   33.9130   22.1580 C.2   480  GLY480      0.2309
    157  O         36.3640   33.4170   21.0140 O.2   480  GLY480     -0.2863
    158  N         36.3600   41.2600   21.5580 N.3   483  ARG483     -0.1245
    159  CA        35.0470   41.7920   21.2310 C.3   483  ARG483      0.1563
    160  C         35.0520   43.1070   20.4570 C.2   483  ARG483      0.2260
    161  O         36.1090   43.7550   20.2780 O.2   483  ARG483     -0.2867
    162  CB        34.2440   41.8810   22.5460 C.3   483  ARG483      0.0307
    163  CG        35.0320   41.2350   23.6930 C.3   483  ARG483      0.0489
    164  CD        34.3660   40.1280   24.5410 C.3   483  ARG483      0.2205
    165  NE        34.1600   38.8610   23.8720 N.pl3 483  ARG483     -0.0865
    166  CZ        34.2760   37.6470   24.4270 C.cat 483  ARG483      0.5346
    167  NH1       34.0260   36.5820   23.6930 N.pl3 483  ARG483      0.1354
    168  NH2       34.6870   37.4730   25.6660 N.pl3 483  ARG483      0.1354
    169  N         37.1530   34.6580   27.3480 N.3   525  ILE525     -0.1231
    170  CA        36.8560   33.2780   27.0020 C.3   525  ILE525      0.1692
    171  C         35.9850   32.6930   28.1060 C.2   525  ILE525      0.2591
    172  O         35.8750   33.2860   29.1870 O.2   525  ILE525     -0.2718
    173  CB        38.2220   32.4640   26.9670 C.3   525  ILE525      0.0266
    174  CG1       38.0420   31.0820   26.3350 C.3   525  ILE525      0.0019
    175  CG2       38.7670   32.2940   28.3800 C.3   525  ILE525      0.0020
    176  CD1       39.3480   30.5640   25.7910 C.3   525  ILE525      0.0001
    177  N         35.3820   31.5370   27.8390 N.am  526  ALA526     -0.1980
    178  CA        34.6440   30.8270   28.8740 C.3   526  ALA526      0.1597
    179  C         34.9710   29.3570   28.6960 C.2   526  ALA526      0.2287
    180  O         34.9000   28.8500   27.5980 O.2   526  ALA526     -0.2864
    181  CB        33.1590   31.0230   28.7250 C.3   526  ALA526      0.0319
    182  N         34.0460   25.3560   29.6590 N.3   528  GLY528     -0.1225
    183  CA        32.9190   24.5690   30.1260 C.3   528  GLY528      0.1811
    184  C         33.5850   23.7820   31.2590 C.2   528  GLY528      0.2280
    185  O         34.2880   22.7940   31.0190 O.2   528  GLY528     -0.2866
    186  N         32.3080   21.7640   33.6760 N.3   530  ASP530     -0.1225
    187  CA        31.8860   20.3640   33.8150 C.3   530  ASP530      0.1805
    188  C         32.5970   19.4920   32.7690 C.2   530  ASP530      0.2597
    189  O         33.0630   18.3930   33.0750 O.2   530  ASP530     -0.2718
    190  CB        30.3850   20.2360   33.6320 C.3   530  ASP530      0.1424
    191  CG        29.6300   21.3170   34.3680 C.2   530  ASP530      0.3668
    192  OD1       29.4100   21.1710   35.5890 O.co2 530  ASP530     -0.2456
    193  OD2       29.2830   22.3310   33.7130 O.co2 530  ASP530     -0.2456
    194  N         32.6720   19.9640   31.5310 N.am  531  ARG531     -0.1979
    195  CA        33.3640   19.2050   30.5040 C.3   531  ARG531      0.1597
    196  C         34.8580   19.0100   30.8210 C.2   531  ARG531      0.2287
    197  O         35.3820   17.9240   30.6390 O.2   531  ARG531     -0.2864
    198  CB        33.2340   19.9010   29.1630 C.3   531  ARG531      0.0334
    199  CG        31.9080   19.6870   28.5140 C.3   531  ARG531      0.0492
    200  CD        31.8540   20.3670   27.1730 C.3   531  ARG531      0.2205
    201  NE        30.4870   20.3690   26.6870 N.pl3 531  ARG531     -0.0865
    202  CZ        30.1140   20.9500   25.5580 C.cat 531  ARG531      0.5346
    203  NH1       31.0310   21.5610   24.8110 N.pl3 531  ARG531      0.1354
    204  NH2       28.8280   20.9310   25.1960 N.pl3 531  ARG531      0.1354
    205  N         29.3700   14.4370   31.7060 N.3   542  ILE542     -0.1245
    206  CA        29.5730   15.4600   32.7180 C.3   542  ILE542      0.1561
    207  C         28.7280   15.2410   33.9650 C.2   542  ILE542      0.2260
    208  O         28.9260   15.9160   34.9800 O.2   542  ILE542     -0.2867
    209  CB        29.2900   16.8940   32.1810 C.3   542  ILE542      0.0252
    210  CG1       27.8260   17.0270   31.7950 C.3   542  ILE542      0.0019
    211  CG2       30.1470   17.1860   30.9270 C.3   542  ILE542      0.0019
    212  CD1       27.4560   18.4500   31.3330 C.3   542  ILE542      0.0001
@<TRIPOS>BOND
     1   110   111    1
     2   123   122    2
     3   111   114    1
     4   111   112    1
     5   122   121    1
     6   114   115    1
     7   120   112   am
     8   120   121    1
     9   112   113    2
    10   121   124    1
    11   115   116   ar
    12   115   117   ar
    13   161   160    2
    14   160   159    1
    15   138   136   ar
    16   116   118   ar
    17   157   156    2
    18   124   125    1
    19   117   119   ar
    20   126   125   ar
    21   126   128   ar
    22   159   158    1
    23   159   162    1
    24    72    70    1
    25   125   127   ar
    26   136   137   ar
    27   136   135    1
    28     4     3    2
    29   128   129   ar
    30     3     2    1
    31   134   135    1
    32   134   131    1
    33   118   119   ar
    34   156   155    1
    35    71    70    1
    36    70    69    2
    37   162   163    1
    38   127   129   ar
    39   130   131    1
    40   131   132    1
    41     2     1    1
    42     2     5    1
    43   154   155    1
    44   154   152   am
    45    69    68    1
    46   151   152    1
    47   151   150    1
    48    53    51   ar
    49   149   148    2
    50   167   166    1
    51   163   164    1
    52     9     7   ar
    53   152   153    2
    54   165   166    2
    55   165   164    1
    56    49    46    1
    57    49    50    1
    58    61    59   ar
    59     5     6    1
    60    46    47    1
    61    46    45    1
    62   132   133    2
    63   132   139   am
    64   166   168    1
    65    47    48    2
    66    68    67    1
    67    51    50    1
    68    51    52   ar
    69   148   150   am
    70   148   147    1
    71     7     6    1
    72     7     8   ar
    73   203   202    1
    74    60    59   ar
    75    59    58    1
    76   139   140    1
    77   204   202    1
    78    24    22   am
    79    43    42    1
    80   202   201    2
    81    67    66    1
    82    22    21    1
    83    22    23    2
    84    21    20    1
    85   146   147    1
    86   146   141   am
    87   176   174    1
    88    42    44    1
    89    42    41    2
    90   174   173    1
    91    58    55    1
    92   140   141    1
    93   140   143    1
    94    40    41    1
    95    40    39    1
    96   201   200    1
    97    66    63    1
    98   145   143    1
    99   141   142    2
   100    20    17    1
   101   173   170    1
   102   173   175    1
   103   170   169    1
   104   170   171    1
   105   200   199    1
   106    54    55    1
   107   144   143    1
   108    57    56    2
   109    38    39    1
   110    38    35    1
   111    55    56    1
   112    56    62   am
   113   180   179    2
   114   177   171   am
   115   177   178    1
   116    62    63    1
   117    63    64    1
   118    36    35    1
   119    36    37    2
   120   171   172    2
   121    15    14    1
   122    35    34    1
   123    17    18    1
   124    17    16    1
   125    18    19    2
   126   199   198    1
   127    14    11    1
   128   179   178    1
   129    33    32    1
   130   181   178    1
   131   101    99   am
   132    64    65    2
   133    64    73   am
   134   198   195    1
   135    92    90   ar
   136    92    91   ar
   137    31    32    1
   138    31    30    1
   139    10    11    1
   140   182   183    1
   141    90    88   ar
   142    30    29    1
   143    11    12    1
   144    91    89   ar
   145    73    74    1
   146    99   100    2
   147    99    98    1
   148   183   184    1
   149    76    75    2
   150    13    12    2
   151   195   196    1
   152   195   194    1
   153   197   196    2
   154   109   107   ar
   155    88    87   ar
   156    27    28    2
   157    27    26    1
   158    75    74    1
   159   211   209    1
   160    89    87   ar
   161   185   184    2
   162    98    97    1
   163    74    77    1
   164    29    26    1
   165   212   210    1
   166    87    86    1
   167   194   188   am
   168    25    26    1
   169   205   206    1
   170   210   209    1
   171   107   108   ar
   172   107   106    1
   173    97    94    1
   174   209   206    1
   175    77    78    1
   176    86    83    1
   177   103   104    1
   178   103   106    1
   179   103   102    1
   180   206   207    1
   181   188   189    2
   182   188   187    1
   183    78    79    1
   184   104   105    2
   185    81    79   am
   186    94    93    1
   187    94    95    1
   188    79    80    2
   189   190   187    1
   190   190   191    1
   191   186   187    1
   192    82    83    1
   193   193   191   ar
   194    83    84    1
   195    95    96    2
   196   207   208    2
   197    84    85    2
   198   191   192   ar
