@<TRIPOS>MOLECULE
tmp/1g51B01.pdb
 94 91 0 0 0
SMALL
GASTEIGER

@<TRIPOS>ATOM
      1  N         39.1560    4.9140  -11.8260 N.3   311  PHE311     -0.1241
      2  CA        38.0390    4.9350  -10.8920 C.3   311  PHE311      0.1605
      3  C         37.3140    6.2950  -10.9180 C.2   311  PHE311      0.2264
      4  O         37.8370    7.2990  -10.4330 O.2   311  PHE311     -0.2867
      5  CB        38.6810    4.6580   -9.5240 C.3   311  PHE311      0.0534
      6  CG        37.7370    4.2120   -8.4630 C.ar  311  PHE311     -0.0203
      7  CD1       36.7210    3.3140   -8.7400 C.ar  311  PHE311     -0.0042
      8  CD2       37.8850    4.6750   -7.1610 C.ar  311  PHE311     -0.0042
      9  CE1       35.8550    2.8770   -7.7210 C.ar  311  PHE311     -0.0003
     10  CE2       37.0360    4.2530   -6.1370 C.ar  311  PHE311     -0.0003
     11  CZ        36.0150    3.3510   -6.4120 C.ar  311  PHE311     -0.0000
     12  N         34.8560    7.7040   -9.2530 N.3   313  VAL313     -0.1231
     13  CA        34.6880    8.3980   -7.9840 C.3   313  VAL313      0.1692
     14  C         35.8680    9.2480   -7.6310 C.2   313  VAL313      0.2592
     15  O         35.6850   10.3980   -7.3030 O.2   313  VAL313     -0.2718
     16  CB        34.4130    7.4270   -6.8170 C.3   313  VAL313      0.0266
     17  CG1       34.5090    8.1660   -5.5130 C.3   313  VAL313      0.0020
     18  CG2       33.0160    6.8370   -6.9480 C.3   313  VAL313      0.0020
     19  N         37.0800    8.7180   -7.6870 N.am  314  PHE314     -0.1976
     20  CA        38.2210    9.5600   -7.3310 C.3   314  PHE314      0.1639
     21  C         38.5030   10.5420   -8.4300 C.2   314  PHE314      0.2290
     22  O         39.1210   11.5580   -8.2110 O.2   314  PHE314     -0.2864
     23  CB        39.4860    8.7410   -7.1220 C.3   314  PHE314      0.0560
     24  CG        39.4790    7.8870   -5.8850 C.ar  314  PHE314     -0.0200
     25  CD1       38.3180    7.7060   -5.1410 C.ar  314  PHE314     -0.0042
     26  CD2       40.6430    7.2370   -5.4880 C.ar  314  PHE314     -0.0042
     27  CE1       38.3110    6.8920   -4.0260 C.ar  314  PHE314     -0.0003
     28  CE2       40.6460    6.4220   -4.3710 C.ar  314  PHE314     -0.0003
     29  CZ        39.4760    6.2450   -3.6360 C.ar  314  PHE314     -0.0000
     30  N         31.8210    2.5130    6.7020 N.3   338  GLU338     -0.1245
     31  CA        31.1960    2.9080    5.4540 C.3   338  GLU338      0.1567
     32  C         29.8870    3.6160    5.7940 C.2   338  GLU338      0.2260
     33  O         29.5800    4.6900    5.2570 O.2   338  GLU338     -0.2867
     34  CB        30.9480    1.6860    4.5590 C.3   338  GLU338      0.0388
     35  CG        30.9390    2.0460    3.0800 C.3   338  GLU338      0.1160
     36  CD        30.8880    0.8340    2.1540 C.2   338  GLU338      0.3649
     37  OE1       31.6900   -0.1280    2.3330 O.co2 338  GLU338     -0.2457
     38  OE2       30.0440    0.8580    1.2270 O.co2 338  GLU338     -0.2457
     39  N         29.2550    9.7600   -0.4890 N.3   347  GLN347     -0.1231
     40  CA        28.6880    8.6570   -1.2390 C.3   347  GLN347      0.1698
     41  C         29.1450    7.2970   -0.7490 C.2   347  GLN347      0.2593
     42  O         28.3990    6.3180   -0.8470 O.2   347  GLN347     -0.2718
     43  CB        28.9670    8.8540   -2.7290 C.3   347  GLN347      0.0381
     44  CG        27.8820    9.6840   -3.4580 C.3   347  GLN347      0.0905
     45  CD        27.7190   11.1340   -2.9450 C.2   347  GLN347      0.2608
     46  OE1       27.3830   11.3690   -1.7720 O.2   347  GLN347     -0.2717
     47  NE2       27.9470   12.1090   -3.8340 N.am  347  GLN347     -0.0878
     48  N         30.3490    7.2360   -0.1870 N.am  348  GLY348     -0.1942
     49  CA        30.8530    5.9680    0.3160 C.3   348  GLY348      0.2014
     50  C         32.2840    6.0680    0.7970 C.2   348  GLY348      0.2639
     51  O         32.8440    7.1580    0.8900 O.2   348  GLY348     -0.2714
     52  N         32.8720    4.9120    1.0900 N.am  349  LEU349     -0.1963
     53  CA        34.2320    4.8240    1.5890 C.3   349  LEU349      0.1728
     54  C         34.9900    3.8070    0.7310 C.2   349  LEU349      0.2616
     55  O         34.3920    2.8890    0.1720 O.2   349  LEU349     -0.2715
     56  CB        34.2080    4.3510    3.0440 C.3   349  LEU349      0.0311
     57  CG        35.5400    4.1860    3.7710 C.3   349  LEU349      0.0022
     58  CD1       36.1650    5.5650    4.0040 C.3   349  LEU349      0.0001
     59  CD2       35.3230    3.4650    5.0870 C.3   349  LEU349      0.0001
     60  N         36.3050    3.9780    0.6300 N.am  350  ALA350     -0.1977
     61  CA        37.1470    3.0590   -0.1200 C.3   350  ALA350      0.1597
     62  C         38.3500    2.6840    0.7370 C.2   350  ALA350      0.2287
     63  O         38.7380    3.4260    1.6470 O.2   350  ALA350     -0.2864
     64  CB        37.6020    3.7100   -1.4220 C.3   350  ALA350      0.0319
     65  N         40.2170   -1.0280   -3.5180 N.3   363  VAL363     -0.1245
     66  CA        40.6260   -0.3020   -4.7240 C.3   363  VAL363      0.1561
     67  C         42.1260   -0.3760   -5.0180 C.2   363  VAL363      0.2260
     68  O         42.6590    0.5040   -5.6910 O.2   363  VAL363     -0.2867
     69  CB        40.2290    1.1910   -4.6060 C.3   363  VAL363      0.0252
     70  CG1       38.7200    1.3230   -4.6060 C.3   363  VAL363      0.0019
     71  CG2       40.7920    1.7800   -3.3130 C.3   363  VAL363      0.0019
     72  N         39.6850    5.8040    2.1570 N.3   388  PHE388     -0.1227
     73  CA        39.4450    6.8990    1.2150 C.3   388  PHE388      0.1736
     74  C         37.9870    7.3670    1.1500 C.2   388  PHE388      0.2595
     75  O         37.0680    6.5250    1.1510 O.2   388  PHE388     -0.2718
     76  CB        39.7810    6.4820   -0.2440 C.3   388  PHE388      0.0547
     77  CG        41.2250    6.1260   -0.4980 C.ar  388  PHE388     -0.0202
     78  CD1       41.6600    4.8220   -0.3620 C.ar  388  PHE388     -0.0042
     79  CD2       42.1360    7.1070   -0.9050 C.ar  388  PHE388     -0.0042
     80  CE1       42.9950    4.4910   -0.6290 C.ar  388  PHE388     -0.0003
     81  CE2       43.4700    6.7850   -1.1680 C.ar  388  PHE388     -0.0003
     82  CZ        43.8910    5.4670   -1.0270 C.ar  388  PHE388     -0.0000
     83  N         37.7790    8.6860    1.0690 N.am  389  VAL389     -0.1966
     84  CA        36.4340    9.2470    0.8810 C.3   389  VAL389      0.1727
     85  C         36.6360   10.3810   -0.1010 C.2   389  VAL389      0.2616
     86  O         37.5260   11.2330    0.0630 O.2   389  VAL389     -0.2715
     87  CB        35.7380    9.8300    2.1620 C.3   389  VAL389      0.0290
     88  CG1       34.4640   10.5590    1.7640 C.3   389  VAL389      0.0023
     89  CG2       35.3370    8.7060    3.1190 C.3   389  VAL389      0.0023
     90  N         35.8070   10.3600   -1.1390 N.am  390  ALA390     -0.1977
     91  CA        35.8450   11.3440   -2.2070 C.3   390  ALA390      0.1597
     92  C         34.5220   12.1010   -2.2740 C.2   390  ALA390      0.2287
     93  O         33.4830   11.6270   -1.8140 O.2   390  ALA390     -0.2864
     94  CB        36.1140   10.6250   -3.5730 C.3   390  ALA390      0.0319
@<TRIPOS>BOND
     1     1     2    1
     2     3     2    1
     3     3     4    2
     4     2     5    1
     5     5     6    1
     6    12    13    1
     7     7     6   ar
     8     7     9   ar
     9     6     8   ar
    10    21    22    2
    11    21    20    1
    12    13    14    1
    13    13    16    1
    14     9    11   ar
    15    19    14   am
    16    19    20    1
    17    14    15    2
    18    20    23    1
    19     8    10   ar
    20    23    24    1
    21    18    16    1
    22    16    17    1
    23    11    10   ar
    24    24    26   ar
    25    24    25   ar
    26    68    67    2
    27    26    28   ar
    28    25    27   ar
    29    67    66    1
    30    66    69    1
    31    66    65    1
    32    70    69    1
    33    69    71    1
    34    28    29   ar
    35    27    29   ar
    36    47    45   am
    37    94    91    1
    38    44    45    1
    39    44    43    1
    40    45    46    2
    41    43    40    1
    42    92    91    1
    43    92    93    2
    44    91    90    1
    45    64    61    1
    46    40    41    1
    47    40    39    1
    48    81    82   ar
    49    81    79   ar
    50    90    85   am
    51    82    80   ar
    52    79    77   ar
    53    42    41    2
    54    41    48   am
    55    80    78   ar
    56    77    78   ar
    57    77    76    1
    58    76    73    1
    59    48    49    1
    60    61    60    1
    61    61    62    1
    62    85    86    2
    63    85    84    1
    64    55    54    2
    65    49    50    1
    66    60    54   am
    67    54    53    1
    68    62    63    2
    69    50    51    2
    70    50    52   am
    71    84    83    1
    72    84    87    1
    73    83    74   am
    74    52    53    1
    75    74    75    2
    76    74    73    1
    77    73    72    1
    78    38    36   ar
    79    53    56    1
    80    88    87    1
    81    36    37   ar
    82    36    35    1
    83    87    89    1
    84    56    57    1
    85    35    34    1
    86    57    58    1
    87    57    59    1
    88    34    31    1
    89    33    32    2
    90    31    32    1
    91    31    30    1
