@<TRIPOS>MOLECULE
tmp/1g53A00.pdb
 136 132 0 0 0
SMALL
GASTEIGER

@<TRIPOS>ATOM
      1  N        -12.6630    6.3410   11.3560 N.3    90  GLN90      -0.1245
      2  CA       -12.3710    5.1750   10.5450 C.3    90  GLN90       0.1566
      3  C        -12.5460    3.8780   11.3060 C.2    90  GLN90       0.2260
      4  O        -12.6950    3.8820   12.5280 O.2    90  GLN90      -0.2867
      5  CB       -10.9330    5.2430   10.0170 C.3    90  GLN90       0.0367
      6  CG        -9.8590    5.3350   11.1090 C.3    90  GLN90       0.0905
      7  CD        -9.0330    4.0650   11.2630 C.2    90  GLN90       0.2608
      8  OE1       -9.5620    2.9570   11.2800 O.2    90  GLN90      -0.2717
      9  NE2       -7.7260    4.2260   11.3980 N.am   90  GLN90      -0.0878
     10  N        -11.2240   -0.4430   11.0090 N.3    92  HIS92      -0.1241
     11  CA       -10.3220   -1.4120   10.3930 C.3    92  HIS92       0.1621
     12  C        -10.3970   -2.7080   11.1950 C.2    92  HIS92       0.2264
     13  O        -11.0280   -2.7680   12.2520 O.2    92  HIS92      -0.2867
     14  CB        -8.8820   -0.9040   10.4250 C.3    92  HIS92       0.0745
     15  CG        -8.3880   -0.6080   11.8080 C.ar   92  HIS92       0.0817
     16  ND1       -8.4620    0.6280   12.4050 N.ar   92  HIS92      -0.2268
     17  CD2       -7.8560   -1.4340   12.7440 C.ar   92  HIS92       0.1154
     18  CE1       -7.9900    0.5100   13.6580 C.ar   92  HIS92       0.1986
     19  NE2       -7.6080   -0.7260   13.9130 N.ar   92  HIS92      -0.2212
     20  N         -8.1470   -6.5170   12.4030 N.3    94  HIS94      -0.1241
     21  CA        -6.9020   -7.1960   12.7050 C.3    94  HIS94       0.1621
     22  C         -7.3750   -8.6440   12.5790 C.2    94  HIS94       0.2264
     23  O         -8.4620   -8.9910   13.0770 O.2    94  HIS94      -0.2867
     24  CB        -6.4460   -6.8820   14.1310 C.3    94  HIS94       0.0745
     25  CG        -6.1190   -5.4340   14.3540 C.ar   94  HIS94       0.0817
     26  ND1       -4.8870   -4.8700   14.1130 N.ar   94  HIS94      -0.2268
     27  CD2       -6.8910   -4.4240   14.8240 C.ar   94  HIS94       0.1154
     28  CE1       -4.9490   -3.5590   14.4420 C.ar   94  HIS94       0.1986
     29  NE2       -6.1460   -3.2160   14.8880 N.ar   94  HIS94      -0.2212
     30  N        -12.0920   -2.5800   14.8640 N.3   117  HIS117     -0.1241
     31  CA       -11.8420   -1.3890   15.6680 C.3   117  HIS117      0.1621
     32  C        -12.5000   -0.1910   15.0130 C.2   117  HIS117      0.2264
     33  O        -12.1960    0.1270   13.8470 O.2   117  HIS117     -0.2867
     34  CB       -10.3410   -1.1080   15.7880 C.3   117  HIS117      0.0745
     35  CG        -9.5880   -2.1490   16.5560 C.ar  117  HIS117      0.0817
     36  ND1       -8.2200   -2.3050   16.4190 N.ar  117  HIS117     -0.2268
     37  CD2      -10.0370   -2.9610   17.5450 C.ar  117  HIS117      0.1154
     38  CE1       -7.8860   -3.1950   17.3360 C.ar  117  HIS117      0.1986
     39  NE2       -8.9450   -3.6170   18.0370 N.ar  117  HIS117     -0.2212
     40  N        -12.6840    3.5260   15.3310 N.3   119  VAL119     -0.1245
     41  CA       -11.9180    4.6260   15.8910 C.3   119  VAL119      0.1561
     42  C        -12.6690    5.9540   15.9160 C.2   119  VAL119      0.2260
     43  O        -13.1470    6.4290   14.8740 O.2   119  VAL119     -0.2867
     44  CB       -10.5720    4.7830   15.1000 C.3   119  VAL119      0.0252
     45  CG1       -9.5960    5.6910   15.8480 C.3   119  VAL119      0.0019
     46  CG2       -9.9570    3.4250   14.8640 C.3   119  VAL119      0.0019
     47  N         -8.3990   15.3900   14.8260 N.3   128  PHE128     -0.1241
     48  CA        -7.8190   14.1120   15.2250 C.3   128  PHE128      0.1605
     49  C         -6.3810   14.2490   15.6940 C.2   128  PHE128      0.2264
     50  O         -5.9890   13.6480   16.6940 O.2   128  PHE128     -0.2867
     51  CB        -7.9190   13.1220   14.0640 C.3   128  PHE128      0.0534
     52  CG        -7.4000   11.7540   14.3860 C.ar  128  PHE128     -0.0203
     53  CD1       -8.2310   10.8000   14.9370 C.ar  128  PHE128     -0.0042
     54  CD2       -6.0720   11.4280   14.1560 C.ar  128  PHE128     -0.0042
     55  CE1       -7.7450    9.5420   15.2570 C.ar  128  PHE128     -0.0003
     56  CE2       -5.5810   10.1750   14.4750 C.ar  128  PHE128     -0.0003
     57  CZ        -6.4210    9.2350   15.0260 C.ar  128  PHE128     -0.0000
     58  N         -4.9000   13.1110   19.5470 N.3   132  VAL132     -0.1245
     59  CA        -3.8620   12.1370   19.8610 C.3   132  VAL132      0.1561
     60  C         -2.7190   12.6650   20.7330 C.2   132  VAL132      0.2260
     61  O         -1.6780   12.0120   20.8790 O.2   132  VAL132     -0.2867
     62  CB        -3.3050   11.4420   18.5960 C.3   132  VAL132      0.0252
     63  CG1       -4.4320   10.7420   17.8620 C.3   132  VAL132      0.0019
     64  CG2       -2.5860   12.4460   17.6820 C.3   132  VAL132      0.0019
     65  N        -12.0110    3.8040   21.0900 N.3   140  VAL140     -0.1245
     66  CA       -12.0860    2.7630   20.0660 C.3   140  VAL140      0.1561
     67  C        -13.0440    1.6870   20.5530 C.2   140  VAL140      0.2260
     68  O        -12.9350    1.2060   21.6820 O.2   140  VAL140     -0.2867
     69  CB       -10.6980    2.1070   19.7660 C.3   140  VAL140      0.0252
     70  CG1      -10.8260    1.0850   18.6400 C.3   140  VAL140      0.0019
     71  CG2       -9.6970    3.1640   19.3700 C.3   140  VAL140      0.0019
     72  N         -2.9870    3.0100   21.2560 N.3   195  LEU195     -0.1231
     73  CA        -3.1160    2.5410   19.8630 C.3   195  LEU195      0.1693
     74  C         -2.3650    1.1940   19.8950 C.2   195  LEU195      0.2593
     75  O         -1.4110    1.0410   20.6810 O.2   195  LEU195     -0.2718
     76  CB        -2.3730    3.4880   18.9010 C.3   195  LEU195      0.0284
     77  CG        -2.8090    4.9620   18.8710 C.3   195  LEU195      0.0019
     78  CD1       -1.8560    5.7660   17.9970 C.3   195  LEU195      0.0001
     79  CD2       -4.2500    5.0850   18.3690 C.3   195  LEU195      0.0001
     80  N         -2.7630    0.2280   19.0650 N.am  196  THR196     -0.1939
     81  CA        -2.0760   -1.0580   19.0730 C.3   196  THR196      0.2028
     82  C         -1.0110   -1.1500   17.9900 C.2   196  THR196      0.2643
     83  O         -0.4050   -2.2140   17.7850 O.2   196  THR196     -0.2714
     84  CB        -3.0490   -2.2170   18.9270 C.3   196  THR196      0.1808
     85  OG1       -3.7120   -2.1340   17.6620 O.3   196  THR196     -0.2208
     86  CG2       -4.0720   -2.1870   20.0420 C.3   196  THR196      0.0379
     87  N         -0.8220   -0.0480   17.2650 N.am  197  THR197     -0.1937
     88  CA         0.1880    0.0190   16.2190 C.3   197  THR197      0.2013
     89  C          1.0060    1.2900   16.4620 C.2   197  THR197      0.2484
     90  O          0.5430    2.2320   17.1520 O.2   197  THR197     -0.2729
     91  CB        -0.4460    0.0720   14.8020 C.3   197  THR197      0.1807
     92  OG1       -1.2900    1.2130   14.7010 O.3   197  THR197     -0.2208
     93  CG2       -1.2910   -1.1620   14.5320 C.3   197  THR197      0.0379
     94  N          2.2660    1.3050   15.9870 N.am  198  PRO198     -0.2715
     95  CA         3.0830    2.5070   16.1840 C.3   198  PRO198      0.1521
     96  C          2.2790    3.6940   15.6450 C.2   198  PRO198      0.2440
     97  O          1.5520    3.5530   14.6570 O.2   198  PRO198     -0.2731
     98  CB         4.3190    2.2130   15.3290 C.3   198  PRO198      0.0310
     99  CG         4.4900    0.7340   15.4960 C.3   198  PRO198      0.0237
    100  CD         3.0540    0.2210   15.3710 C.3   198  PRO198      0.0939
    101  N          2.4340    4.8850   16.2430 N.am  199  PRO199     -0.2727
    102  CA         3.2880    5.2660   17.3720 C.3   199  PRO199      0.1402
    103  C          2.8920    4.8130   18.7930 C.2   199  PRO199      0.2269
    104  O          3.5020    5.2540   19.7730 O.2   199  PRO199     -0.2865
    105  CB         3.3470    6.7820   17.2370 C.3   199  PRO199      0.0296
    106  CG         1.9930    7.1060   16.7370 C.3   199  PRO199      0.0237
    107  CD         1.7380    6.0590   15.6940 C.3   199  PRO199      0.0939
    108  N          0.5240    5.5810   20.8340 N.3   201  LEU201     -0.1245
    109  CA         0.1900    6.6720   21.7510 C.3   201  LEU201      0.1561
    110  C         -0.8430    6.2360   22.8000 C.2   201  LEU201      0.2260
    111  O         -1.8140    5.5540   22.4830 O.2   201  LEU201     -0.2867
    112  CB        -0.2960    7.8920   20.9470 C.3   201  LEU201      0.0270
    113  CG         0.7500    8.3720   19.9200 C.3   201  LEU201      0.0019
    114  CD1        0.2400    9.5470   19.1200 C.3   201  LEU201      0.0001
    115  CD2        2.0350    8.7700   20.6560 C.3   201  LEU201      0.0001
    116  N         -6.0680    6.3170   24.3510 N.3   204  VAL204     -0.1245
    117  CA        -7.3270    5.6160   24.1260 C.3   204  VAL204      0.1561
    118  C         -8.1540    5.0290   25.2720 C.2   204  VAL204      0.2260
    119  O         -7.6200    4.3860   26.1860 O.2   204  VAL204     -0.2867
    120  CB        -7.0950    4.4670   23.1120 C.3   204  VAL204      0.0252
    121  CG1       -8.4370    3.7920   22.7260 C.3   204  VAL204      0.0019
    122  CG2       -6.3680    4.9920   21.9000 C.3   204  VAL204      0.0019
    123  N        -10.5610    2.3060   25.7660 N.3   206  TRP206     -0.1241
    124  CA       -10.9990    1.1370   25.0690 C.3   206  TRP206      0.1605
    125  C        -12.3450    0.6670   25.5880 C.2   206  TRP206      0.2264
    126  O        -12.5560    0.6040   26.8020 O.2   206  TRP206     -0.2867
    127  CB        -9.9440    0.0450   25.2160 C.3   206  TRP206      0.0550
    128  CG        -8.8700    0.1470   24.2060 C.ar  206  TRP206      0.0003
    129  CD1       -7.6400    0.7080   24.3680 C.ar  206  TRP206      0.0946
    130  CD2       -8.9180   -0.3470   22.8550 C.ar  206  TRP206      0.0152
    131  NE1       -6.9100    0.5960   23.1910 N.ar  206  TRP206     -0.2442
    132  CE2       -7.6730   -0.0510   22.2530 C.ar  206  TRP206      0.0810
    133  CE3       -9.8930   -1.0130   22.1000 C.ar  206  TRP206      0.0012
    134  CZ2       -7.3760   -0.4010   20.9230 C.ar  206  TRP206      0.0191
    135  CZ3       -9.6020   -1.3650   20.7760 C.ar  206  TRP206      0.0001
    136  CH2       -8.3530   -1.0590   20.2030 C.ar  206  TRP206      0.0015
@<TRIPOS>BOND
     1     5     2    1
     2     5     6    1
     3    11    14    1
     4    11    10    1
     5    11    12    1
     6    14    15    1
     7     2     3    1
     8     2     1    1
     9     6     7    1
    10    12    13    2
    11     7     8    2
    12     7     9   am
    13     3     4    2
    14    15    16   ar
    15    15    17   ar
    16    20    21    1
    17    16    18   ar
    18    22    21    1
    19    22    23    2
    20    21    24    1
    21    17    19   ar
    22    18    19   ar
    23    33    32    2
    24    51    52    1
    25    51    48    1
    26    26    25   ar
    27    26    28   ar
    28    24    25    1
    29    54    52   ar
    30    54    56   ar
    31    25    27   ar
    32    52    53   ar
    33    28    29   ar
    34    56    57   ar
    35    93    91    1
    36    97    96    2
    37    92    91    1
    38    91    88    1
    39    27    29   ar
    40    47    48    1
    41    30    31    1
    42    46    44    1
    43    43    42    2
    44    53    55   ar
    45    32    31    1
    46    57    55   ar
    47    44    45    1
    48    44    41    1
    49    48    49    1
    50    98    99    1
    51    98    95    1
    52    40    41    1
    53   100    99    1
    54   100    94    1
    55    96    95    1
    56    96   101   am
    57    31    34    1
    58    49    50    2
    59   107   101    1
    60   107   106    1
    61    34    35    1
    62    41    42    1
    63    94    95    1
    64    94    89   am
    65    88    89    1
    66    88    87    1
    67   101   102    1
    68    36    35   ar
    69    36    38   ar
    70    89    90    2
    71    35    37   ar
    72   106   105    1
    73   105   102    1
    74    87    82   am
    75    38    39   ar
    76   102   103    1
    77    37    39   ar
    78    85    84    1
    79    64    62    1
    80    83    82    2
    81    63    62    1
    82    82    81    1
    83    78    77    1
    84    79    77    1
    85    62    59    1
    86    70    69    1
    87   103   104    2
    88    77    76    1
    89    76    73    1
    90    84    81    1
    91    84    86    1
    92    80    81    1
    93    80    74   am
    94   114   113    1
    95    71    69    1
    96    58    59    1
    97    69    66    1
    98    59    60    1
    99    73    74    1
   100    73    72    1
   101    74    75    2
   102   113   115    1
   103   113   112    1
   104    66    67    1
   105    66    65    1
   106   136   135   ar
   107   136   134   ar
   108    67    68    2
   109    60    61    2
   110   135   133   ar
   111   108   109    1
   112   134   132   ar
   113   112   109    1
   114   109   110    1
   115   122   120    1
   116   133   130   ar
   117   132   130   ar
   118   132   131   ar
   119   111   110    2
   120   121   120    1
   121   130   128   ar
   122   120   117    1
   123   131   129   ar
   124   117   116    1
   125   117   118    1
   126   128   129   ar
   127   128   127    1
   128   124   127    1
   129   124   125    1
   130   124   123    1
   131   118   119    2
   132   125   126    2
