@<TRIPOS>MOLECULE
tmp/1g54A00.pdb
 133 130 0 0 0
SMALL
GASTEIGER

@<TRIPOS>ATOM
      1  N        -12.8270    6.3460   11.3580 N.3    90  GLN90      -0.1245
      2  CA       -12.5670    5.2030   10.5080 C.3    90  GLN90       0.1566
      3  C        -12.5950    3.9010   11.2720 C.2    90  GLN90       0.2260
      4  O        -12.6570    3.9090   12.4950 O.2    90  GLN90      -0.2867
      5  CB       -11.2170    5.4210    9.8070 C.3    90  GLN90       0.0367
      6  CG       -10.2380    4.2690    9.7800 C.3    90  GLN90       0.0905
      7  CD        -9.3920    4.1690   11.0290 C.2    90  GLN90       0.2608
      8  OE1       -9.0460    3.0810   11.4500 O.2    90  GLN90      -0.2717
      9  NE2       -9.0570    5.3010   11.6180 N.am   90  GLN90      -0.0878
     10  N        -11.1790   -0.4530   11.0090 N.3    92  HIS92      -0.1241
     11  CA       -10.2890   -1.4100   10.3660 C.3    92  HIS92       0.1621
     12  C        -10.3690   -2.6770   11.1780 C.2    92  HIS92       0.2264
     13  O        -11.0310   -2.7140   12.2130 O.2    92  HIS92      -0.2867
     14  CB        -8.8560   -0.8950   10.3750 C.3    92  HIS92       0.0745
     15  CG        -8.3700   -0.5380   11.7410 C.ar   92  HIS92       0.0817
     16  ND1       -8.5780    0.6850   12.3330 N.ar   92  HIS92      -0.2268
     17  CD2       -7.7180   -1.2860   12.6650 C.ar   92  HIS92       0.1154
     18  CE1       -8.0610    0.6440   13.5620 C.ar   92  HIS92       0.1986
     19  NE2       -7.5260   -0.5340   13.8140 N.ar   92  HIS92      -0.2212
     20  N         -8.1120   -6.4620   12.4170 N.3    94  HIS94      -0.1241
     21  CA        -6.8470   -7.1330   12.6590 C.3    94  HIS94       0.1621
     22  C         -7.3310   -8.5670   12.5510 C.2    94  HIS94       0.2264
     23  O         -8.4210   -8.8910   13.0480 O.2    94  HIS94      -0.2867
     24  CB        -6.3170   -6.8580   14.0560 C.3    94  HIS94       0.0745
     25  CG        -5.9980   -5.4180   14.3010 C.ar   94  HIS94       0.0817
     26  ND1       -4.7300   -4.8830   14.2190 N.ar   94  HIS94      -0.2268
     27  CD2       -6.8090   -4.3910   14.6520 C.ar   94  HIS94       0.1154
     28  CE1       -4.8110   -3.5820   14.5280 C.ar   94  HIS94       0.1986
     29  NE2       -6.0570   -3.2370   14.7980 N.ar   94  HIS94      -0.2212
     30  N        -12.0260   -2.5110   14.8800 N.3   117  HIS117     -0.1241
     31  CA       -11.7800   -1.3460   15.6910 C.3   117  HIS117      0.1621
     32  C        -12.4300   -0.1590   15.0360 C.2   117  HIS117      0.2264
     33  O        -12.0910    0.1830   13.8920 O.2   117  HIS117     -0.2867
     34  CB       -10.2740   -1.0890   15.8040 C.3   117  HIS117      0.0745
     35  CG        -9.5530   -2.0960   16.6460 C.ar  117  HIS117      0.0817
     36  ND1       -8.1960   -2.2710   16.5530 N.ar  117  HIS117     -0.2268
     37  CD2      -10.0470   -2.9230   17.6000 C.ar  117  HIS117      0.1154
     38  CE1       -7.8950   -3.1970   17.4430 C.ar  117  HIS117      0.1986
     39  NE2       -8.9790   -3.6170   18.1000 N.ar  117  HIS117     -0.2212
     40  N        -12.6210    3.5510   15.2920 N.3   119  VAL119     -0.1245
     41  CA       -11.8620    4.6430   15.8860 C.3   119  VAL119      0.1561
     42  C        -12.6260    5.9520   15.9590 C.2   119  VAL119      0.2260
     43  O        -13.1940    6.3960   14.9570 O.2   119  VAL119     -0.2867
     44  CB       -10.5160    4.8510   15.1240 C.3   119  VAL119      0.0252
     45  CG1       -9.6530    5.8920   15.8050 C.3   119  VAL119      0.0019
     46  CG2       -9.7670    3.5380   15.0180 C.3   119  VAL119      0.0019
     47  N         -8.2860   15.1630   14.8280 N.3   128  PHE128     -0.1227
     48  CA        -7.6690   13.9100   15.2120 C.3   128  PHE128      0.1736
     49  C         -6.2500   14.0930   15.7270 C.2   128  PHE128      0.2596
     50  O         -5.8800   13.5160   16.7490 O.2   128  PHE128     -0.2718
     51  CB        -7.7030   12.9280   14.0450 C.3   128  PHE128      0.0547
     52  CG        -7.2100   11.5690   14.3990 C.ar  128  PHE128     -0.0202
     53  CD1       -8.0650   10.6400   14.9700 C.ar  128  PHE128     -0.0042
     54  CD2       -5.8810   11.2190   14.1840 C.ar  128  PHE128     -0.0042
     55  CE1       -7.6120    9.3800   15.3260 C.ar  128  PHE128     -0.0003
     56  CE2       -5.4120    9.9570   14.5390 C.ar  128  PHE128     -0.0003
     57  CZ        -6.2840    9.0360   15.1120 C.ar  128  PHE128     -0.0000
     58  N         -5.4760   14.9260   15.0370 N.am  129  GLY129     -0.1957
     59  CA        -4.0990   15.1860   15.4290 C.3   129  GLY129      0.1869
     60  C         -3.9120   15.7110   16.8460 C.2   129  GLY129      0.2309
     61  O         -2.9460   15.3480   17.5090 O.2   129  GLY129     -0.2863
     62  N         -4.7090   12.9910   19.6870 N.3   132  VAL132     -0.1245
     63  CA        -3.6330   12.0460   19.9790 C.3   132  VAL132      0.1561
     64  C         -2.5460   12.6130   20.9070 C.2   132  VAL132      0.2260
     65  O         -1.5080   11.9930   21.1310 O.2   132  VAL132     -0.2867
     66  CB        -3.0280   11.4060   18.6910 C.3   132  VAL132      0.0252
     67  CG1       -4.1390   10.9100   17.8110 C.3   132  VAL132      0.0019
     68  CG2       -2.1360   12.3780   17.9290 C.3   132  VAL132      0.0019
     69  N        -11.8300    3.7360   21.2370 N.3   140  VAL140     -0.1245
     70  CA       -11.9090    2.7400   20.1800 C.3   140  VAL140      0.1561
     71  C        -12.8690    1.6760   20.6440 C.2   140  VAL140      0.2260
     72  O        -12.7530    1.1730   21.7710 O.2   140  VAL140     -0.2867
     73  CB       -10.5560    2.0850   19.8430 C.3   140  VAL140      0.0252
     74  CG1      -10.7440    1.1040   18.6780 C.3   140  VAL140      0.0019
     75  CG2       -9.5320    3.1330   19.4820 C.3   140  VAL140      0.0019
     76  N         -2.9180    3.0110   21.3380 N.3   195  LEU195     -0.1231
     77  CA        -3.0560    2.5870   19.9480 C.3   195  LEU195      0.1693
     78  C         -2.3070    1.2650   19.9530 C.2   195  LEU195      0.2593
     79  O         -1.2720    1.1510   20.6210 O.2   195  LEU195     -0.2718
     80  CB        -2.2800    3.5470   19.0610 C.3   195  LEU195      0.0284
     81  CG        -2.9640    4.7450   18.4130 C.3   195  LEU195      0.0019
     82  CD1       -4.1450    5.2150   19.1890 C.3   195  LEU195      0.0001
     83  CD2       -1.9460    5.8460   18.1870 C.3   195  LEU195      0.0001
     84  N         -2.7590    0.2810   19.1880 N.am  196  THR196     -0.1939
     85  CA        -2.0620   -1.0010   19.1780 C.3   196  THR196      0.2028
     86  C         -1.0040   -1.0960   18.0860 C.2   196  THR196      0.2643
     87  O         -0.4000   -2.1560   17.8790 O.2   196  THR196     -0.2714
     88  CB        -3.0320   -2.1570   19.0490 C.3   196  THR196      0.1808
     89  OG1       -3.6970   -2.0750   17.7870 O.3   196  THR196     -0.2208
     90  CG2       -4.0720   -2.1080   20.1720 C.3   196  THR196      0.0379
     91  N         -0.8350   -0.0110   17.3400 N.am  197  THR197     -0.1937
     92  CA         0.1770    0.0400   16.2900 C.3   197  THR197      0.2013
     93  C          0.9810    1.3040   16.5350 C.2   197  THR197      0.2484
     94  O          0.5020    2.2320   17.2080 O.2   197  THR197     -0.2729
     95  CB        -0.4440    0.1610   14.8670 C.3   197  THR197      0.1807
     96  OG1       -1.1730    1.3920   14.7570 O.3   197  THR197     -0.2208
     97  CG2       -1.3740   -1.0070   14.5660 C.3   197  THR197      0.0379
     98  N          2.2390    1.3360   16.0670 N.am  198  PRO198     -0.2715
     99  CA         3.0310    2.5450   16.2650 C.3   198  PRO198      0.1521
    100  C          2.1730    3.6720   15.6970 C.2   198  PRO198      0.2440
    101  O          1.4260    3.4550   14.7310 O.2   198  PRO198     -0.2731
    102  CB         4.2520    2.2710   15.3890 C.3   198  PRO198      0.0310
    103  CG         4.4690    0.8280   15.6070 C.3   198  PRO198      0.0237
    104  CD         3.0690    0.2510   15.5180 C.3   198  PRO198      0.0939
    105  N          2.2780    4.8860   16.2450 N.am  199  PRO199     -0.2727
    106  CA         3.1180    5.3590   17.3470 C.3   199  PRO199      0.1402
    107  C          2.8130    4.8540   18.7770 C.2   199  PRO199      0.2269
    108  O          3.4860    5.2530   19.7190 O.2   199  PRO199     -0.2865
    109  CB         3.0000    6.8770   17.2150 C.3   199  PRO199      0.0296
    110  CG         1.6320    7.0640   16.6970 C.3   199  PRO199      0.0237
    111  CD         1.5270    6.0050   15.6440 C.3   199  PRO199      0.0939
    112  N          0.5490    5.5620   20.9170 N.3   201  LEU201     -0.1245
    113  CA         0.2000    6.6470   21.8180 C.3   201  LEU201      0.1561
    114  C         -0.7830    6.2110   22.8960 C.2   201  LEU201      0.2260
    115  O         -1.7610    5.4910   22.6400 O.2   201  LEU201     -0.2867
    116  CB        -0.3390    7.8340   21.0140 C.3   201  LEU201      0.0270
    117  CG         0.7050    8.3330   20.0030 C.3   201  LEU201      0.0019
    118  CD1        0.1160    9.4570   19.1620 C.3   201  LEU201      0.0001
    119  CD2        1.9880    8.7960   20.7230 C.3   201  LEU201      0.0001
    120  N        -10.5150    2.2600   25.8600 N.3   206  TRP206     -0.1241
    121  CA       -10.9520    1.1170   25.0950 C.3   206  TRP206      0.1605
    122  C        -12.3110    0.6630   25.5680 C.2   206  TRP206      0.2264
    123  O        -12.5740    0.6290   26.7770 O.2   206  TRP206     -0.2867
    124  CB        -9.9410   -0.0160   25.2290 C.3   206  TRP206      0.0550
    125  CG        -8.8310    0.1190   24.2660 C.ar  206  TRP206      0.0003
    126  CD1       -7.6130    0.6860   24.4850 C.ar  206  TRP206      0.0946
    127  CD2       -8.8420   -0.3100   22.9020 C.ar  206  TRP206      0.0152
    128  NE1       -6.8620    0.6420   23.3360 N.ar  206  TRP206     -0.2442
    129  CE2       -7.5910    0.0320   22.3490 C.ar  206  TRP206      0.0810
    130  CE3       -9.7900   -0.9540   22.0970 C.ar  206  TRP206      0.0012
    131  CZ2       -7.2560   -0.2490   21.0180 C.ar  206  TRP206      0.0191
    132  CZ3       -9.4650   -1.2370   20.7810 C.ar  206  TRP206      0.0001
    133  CH2       -8.2050   -0.8850   20.2530 C.ar  206  TRP206      0.0015
@<TRIPOS>BOND
     1     6     5    1
     2     6     7    1
     3     5     2    1
     4    11    14    1
     5    11    10    1
     6    11    12    1
     7    14    15    1
     8     2     3    1
     9     2     1    1
    10     7     8    2
    11     7     9   am
    12    12    13    2
    13     3     4    2
    14    15    16   ar
    15    15    17   ar
    16    16    18   ar
    17    20    21    1
    18    22    21    1
    19    22    23    2
    20    21    24    1
    21    17    19   ar
    22    18    19   ar
    23    33    32    2
    24    51    52    1
    25    51    48    1
    26    24    25    1
    27    54    52   ar
    28    54    56   ar
    29    26    25   ar
    30    26    28   ar
    31    25    27   ar
    32    52    53   ar
    33    28    29   ar
    34    56    57   ar
    35    97    95    1
    36    27    29   ar
    37   101   100    2
    38    96    95    1
    39    47    48    1
    40    95    92    1
    41    30    31    1
    42    43    42    2
    43    53    55   ar
    44    46    44    1
    45    32    31    1
    46    58    59    1
    47    58    49   am
    48    57    55   ar
    49    44    45    1
    50    44    41    1
    51    48    49    1
    52    40    41    1
    53   102   103    1
    54   102    99    1
    55    59    60    1
    56   104   103    1
    57   104    98    1
    58   111   105    1
    59   111   110    1
    60    31    34    1
    61   100   105   am
    62   100    99    1
    63    49    50    2
    64    34    35    1
    65    41    42    1
    66    98    99    1
    67    98    93   am
    68   105   106    1
    69    92    93    1
    70    92    91    1
    71    93    94    2
    72    36    35   ar
    73    36    38   ar
    74    35    37   ar
    75   110   109    1
    76    60    61    2
    77   109   106    1
    78    91    86   am
    79   106   107    1
    80    38    39   ar
    81    37    39   ar
    82    89    88    1
    83    67    66    1
    84    87    86    2
    85    68    66    1
    86    86    85    1
    87    83    81    1
    88    81    80    1
    89    81    82    1
    90    74    73    1
    91    66    63    1
    92   107   108    2
    93    88    85    1
    94    88    90    1
    95    80    77    1
    96   118   117    1
    97    85    84    1
    98    84    78   am
    99    75    73    1
   100    62    63    1
   101    73    70    1
   102    77    78    1
   103    77    76    1
   104    78    79    2
   105    63    64    1
   106   117   119    1
   107   117   116    1
   108    70    71    1
   109    70    69    1
   110   133   132   ar
   111   133   131   ar
   112    71    72    2
   113   132   130   ar
   114    64    65    2
   115   112   113    1
   116   116   113    1
   117   131   129   ar
   118   113   114    1
   119   130   127   ar
   120   129   127   ar
   121   129   128   ar
   122   115   114    2
   123   127   125   ar
   124   128   126   ar
   125   125   126   ar
   126   125   124    1
   127   121   124    1
   128   121   122    1
   129   121   120    1
   130   122   123    2
