@<TRIPOS>MOLECULE
tmp/1g55A00.pdb
 168 159 0 0 0
SMALL
GASTEIGER

@<TRIPOS>ATOM
      1  N         61.1320   39.1850   26.5600 N.3     9  TYR9       -0.1227
      2  CA        61.0620   38.5230   27.8670 C.3     9  TYR9        0.1736
      3  C         60.6420   39.6060   28.8380 C.2     9  TYR9        0.2596
      4  O         61.2080   39.7290   29.9270 O.2     9  TYR9       -0.2718
      5  CB        62.4450   37.9800   28.2670 C.3     9  TYR9        0.0548
      6  CG        63.1320   37.1020   27.2270 C.ar    9  TYR9       -0.0200
      7  CD1       64.1640   37.6090   26.4310 C.ar    9  TYR9       -0.0009
      8  CD2       62.7580   35.7610   27.0520 C.ar    9  TYR9       -0.0009
      9  CE1       64.8000   36.8040   25.4980 C.ar    9  TYR9        0.0417
     10  CE2       63.3970   34.9510   26.1140 C.ar    9  TYR9        0.0417
     11  CZ        64.4120   35.4850   25.3510 C.ar    9  TYR9        0.1957
     12  OH        65.0720   34.6820   24.4630 O.3     9  TYR9       -0.2866
     13  N         59.6210   40.3660   28.4470 N.am   10  SER10      -0.1938
     14  CA        59.1480   41.5160   29.2100 C.3    10  SER10       0.2055
     15  C         58.7450   41.3880   30.6780 C.2    10  SER10       0.2644
     16  O         58.9960   42.3180   31.4460 O.2    10  SER10      -0.2714
     17  CB        58.0730   42.2480   28.4200 C.3    10  SER10       0.2130
     18  OG        57.0230   41.3750   28.0590 O.3    10  SER10      -0.2179
     19  N         58.1320   40.2700   31.0720 N.am   11  GLY11      -0.1939
     20  CA        57.7080   40.0760   32.4620 C.3    11  GLY11       0.2014
     21  C         56.7740   41.1720   32.9650 C.2    11  GLY11       0.2638
     22  O         55.7870   41.4830   32.2970 O.2    11  GLY11      -0.2714
     23  N         57.0830   41.7700   34.1260 N.am   12  VAL12      -0.1977
     24  CA        56.2830   42.8770   34.6860 C.3    12  VAL12       0.1596
     25  C         56.7450   44.2410   34.1120 C.2    12  VAL12       0.2287
     26  O         56.2810   45.3090   34.5270 O.2    12  VAL12      -0.2864
     27  CB        56.2900   42.8950   36.2470 C.3    12  VAL12       0.0276
     28  CG1       55.7680   41.5830   36.7880 C.3    12  VAL12       0.0022
     29  CG2       57.6870   43.1880   36.7940 C.3    12  VAL12       0.0022
     30  N         60.1980   45.5210   33.8480 N.3    14  GLY14      -0.1210
     31  CA        61.3220   46.2180   34.4520 C.3    14  GLY14       0.1956
     32  C         62.1320   47.0130   33.4270 C.2    14  GLY14       0.2611
     33  O         62.5350   48.1350   33.7020 O.2    14  GLY14      -0.2717
     34  N         62.3460   46.4660   32.2310 N.am   15  MET15      -0.1979
     35  CA        63.1080   47.1690   31.1890 C.3    15  MET15       0.1605
     36  C         62.3980   48.4340   30.7600 C.2    15  MET15       0.2287
     37  O         63.0250   49.4650   30.5450 O.2    15  MET15      -0.2864
     38  CB        63.3320   46.2710   29.9650 C.3    15  MET15       0.0413
     39  CG        64.3050   45.1470   30.1800 C.3    15  MET15       0.0598
     40  SD        65.9800   45.7210   30.5820 S.3    15  MET15      -0.1393
     41  CE        66.8760   44.1670   30.7050 C.3    15  MET15       0.0692
     42  N         57.4280   41.5100   24.5120 N.3    32  ILE32      -0.1231
     43  CA        57.0470   40.1220   24.2050 C.3    32  ILE32       0.1692
     44  C         57.2770   39.1460   25.3560 C.2    32  ILE32       0.2592
     45  O         58.3810   39.0910   25.9190 O.2    32  ILE32      -0.2718
     46  CB        57.7900   39.5520   22.9520 C.3    32  ILE32       0.0266
     47  CG1       57.8040   40.5730   21.8080 C.3    32  ILE32       0.0019
     48  CG2       57.1350   38.2200   22.5020 C.3    32  ILE32       0.0020
     49  CD1       58.4240   40.0450   20.5130 C.3    32  ILE32       0.0001
     50  N         56.2520   38.3550   25.6730 N.am   33  ASP33      -0.1960
     51  CA        56.3300   37.3460   26.7360 C.3    33  ASP33       0.1840
     52  C         55.1600   36.3530   26.5840 C.2    33  ASP33       0.2622
     53  O         54.0750   36.7510   26.1590 O.2    33  ASP33      -0.2715
     54  CB        56.2580   38.0440   28.1080 C.3    33  ASP33       0.1450
     55  CG        56.8010   37.1900   29.2420 C.2    33  ASP33       0.3671
     56  OD1       57.6990   37.6680   29.9580 O.co2  33  ASP33      -0.2456
     57  OD2       56.3360   36.0590   29.4370 O.co2  33  ASP33      -0.2456
     58  N         55.3700   35.0770   26.9090 N.am   34  VAL34      -0.1963
     59  CA        54.2760   34.0750   26.8230 C.3    34  VAL34       0.1727
     60  C         53.4570   33.9380   28.1070 C.2    34  VAL34       0.2616
     61  O         52.2970   33.5110   28.0730 O.2    34  VAL34      -0.2715
     62  CB        54.7370   32.6220   26.4650 C.3    34  VAL34       0.0290
     63  CG1       54.7860   32.4230   24.9870 C.3    34  VAL34       0.0023
     64  CG2       56.0610   32.2740   27.1240 C.3    34  VAL34       0.0023
     65  N         54.0810   34.2700   29.2350 N.am   35  ASN35      -0.1972
     66  CA        53.4380   34.1610   30.5350 C.3    35  ASN35       0.1688
     67  C         52.2330   35.0670   30.6790 C.2    35  ASN35       0.2292
     68  O         52.3900   36.2750   30.8270 O.2    35  ASN35      -0.2864
     69  CB        54.4210   34.4700   31.6490 C.3    35  ASN35       0.1181
     70  CG        53.8400   34.1710   33.0240 C.2    35  ASN35       0.2629
     71  OD1       53.5050   35.0700   33.7760 O.2    35  ASN35      -0.2716
     72  ND2       53.6670   32.9080   33.3250 N.am   35  ASN35      -0.0877
     73  N         52.2950   37.3500   33.8960 N.3    38  ALA38      -0.1245
     74  CA        53.2010   38.4920   33.7710 C.3    38  ALA38       0.1562
     75  C         52.5620   39.5510   32.8780 C.2    38  ALA38       0.2260
     76  O         52.5630   40.7400   33.2150 O.2    38  ALA38      -0.2867
     77  CB        54.5190   38.0530   33.1830 C.3    38  ALA38       0.0290
     78  N         53.4710   35.7740   22.6980 N.3    54  LYS54      -0.1231
     79  CA        53.9200   34.7560   21.7670 C.3    54  LYS54       0.1693
     80  C         55.2880   34.2510   22.1490 C.2    54  LYS54       0.2593
     81  O         56.0020   34.9050   22.8980 O.2    54  LYS54      -0.2718
     82  CB        54.0250   35.3700   20.3580 C.3    54  LYS54       0.0285
     83  CG        52.6980   35.7890   19.7320 C.3    54  LYS54       0.0035
     84  CD        52.8660   36.5540   18.4110 C.3    54  LYS54       0.0206
     85  CE        51.4910   36.9590   17.8320 C.3    54  LYS54       0.1093
     86  NZ        51.5790   37.8250   16.6120 N.3    54  LYS54      -0.1314
     87  N         55.6440   33.0670   21.6600 N.am   55  THR55      -0.1939
     88  CA        56.9700   32.5210   21.9090 C.3    55  THR55       0.2028
     89  C         57.9080   33.3430   21.0290 C.2    55  THR55       0.2642
     90  O         57.5920   33.6130   19.8610 O.2    55  THR55      -0.2714
     91  CB        57.1040   31.0310   21.5000 C.3    55  THR55       0.1808
     92  OG1       56.7590   30.8570   20.1190 O.3    55  THR55      -0.2208
     93  CG2       56.2420   30.1540   22.3620 C.3    55  THR55       0.0379
     94  N         59.0560   33.7260   21.5830 N.am   56  ILE56      -0.1963
     95  CA        60.0480   34.5260   20.8680 C.3    56  ILE56       0.1727
     96  C         60.6680   33.7410   19.7130 C.2    56  ILE56       0.2616
     97  O         61.0540   34.3190   18.6900 O.2    56  ILE56      -0.2715
     98  CB        61.1220   35.0750   21.8600 C.3    56  ILE56       0.0290
     99  CG1       60.4840   36.1520   22.7530 C.3    56  ILE56       0.0022
    100  CG2       62.3070   35.6320   21.1220 C.3    56  ILE56       0.0023
    101  CD1       61.3550   36.6510   23.8920 C.3    56  ILE56       0.0001
    102  N         60.6950   32.4160   19.8560 N.am   57  GLU57      -0.1977
    103  CA        61.2530   31.5150   18.8370 C.3    57  GLU57       0.1602
    104  C         60.3640   31.4910   17.6170 C.2    57  GLU57       0.2287
    105  O         60.8450   31.2670   16.5200 O.2    57  GLU57      -0.2864
    106  CB        61.3470   30.0740   19.3410 C.3    57  GLU57       0.0415
    107  CG        61.7090   29.8970   20.7970 C.3    57  GLU57       0.1163
    108  CD        60.4990   29.8730   21.6980 C.2    57  GLU57       0.3649
    109  OE1       60.2660   30.8760   22.4010 O.co2  57  GLU57      -0.2457
    110  OE2       59.7980   28.8450   21.7160 O.co2  57  GLU57      -0.2457
    111  N         65.9620   40.1820   28.9510 N.3    75  SER75      -0.1217
    112  CA        66.4040   39.3980   30.1160 C.3    75  SER75       0.1889
    113  C         66.0710   37.9490   29.8460 C.2    75  SER75       0.2288
    114  O         65.1340   37.4180   30.4410 O.2    75  SER75      -0.2866
    115  CB        65.6800   39.8150   31.4010 C.3    75  SER75       0.2089
    116  OG        65.9410   41.1670   31.7310 O.3    75  SER75      -0.2183
    117  N         65.8040   34.0810   30.1120 N.3    77  PRO77      -0.2116
    118  CA        65.8420   33.2080   31.2920 C.3    77  PRO77       0.1372
    119  C         67.2080   32.5960   31.5770 C.2    77  PRO77       0.2244
    120  O         67.8560   32.0700   30.6760 O.2    77  PRO77      -0.2868
    121  CB        64.8000   32.1390   30.9540 C.3    77  PRO77       0.0268
    122  CG        63.8680   32.8560   30.0340 C.3    77  PRO77       0.0207
    123  CD        64.8140   33.5880   29.1440 C.3    77  PRO77       0.0892
    124  N         64.8960   30.4100   22.0830 N.3    79  SER79      -0.1217
    125  CA        64.3720   31.7500   21.7990 C.3    79  SER79       0.1889
    126  C         65.5690   32.7110   21.6540 C.2    79  SER79       0.2288
    127  O         65.6370   33.5070   20.7210 O.2    79  SER79      -0.2866
    128  CB        63.4350   32.2350   22.9210 C.3    79  SER79       0.2089
    129  OG        64.0530   32.2160   24.2010 O.3    79  SER79      -0.2183
    130  N         70.3890   41.5480   30.2780 N.3   100  GLU100     -0.1245
    131  CA        70.5680   41.2950   31.6870 C.3   100  GLU100      0.1567
    132  C         70.5070   39.7930   31.8780 C.2   100  GLU100      0.2260
    133  O         69.7130   39.1050   31.2210 O.2   100  GLU100     -0.2867
    134  CB        69.4520   41.9390   32.5050 C.3   100  GLU100      0.0388
    135  CG        69.7110   41.8390   33.9910 C.3   100  GLU100      0.1160
    136  CD        68.5430   41.3480   34.8170 C.2   100  GLU100      0.3649
    137  OE1       67.5540   40.8280   34.2730 O.co2 100  GLU100     -0.2457
    138  OE2       68.6180   41.4900   36.0500 O.co2 100  GLU100     -0.2457
    139  N         56.8750   36.9550   40.3370 N.3   292  LEU292     -0.1245
    140  CA        57.1230   37.9240   39.2570 C.3   292  LEU292      0.1561
    141  C         58.2490   38.9160   39.6120 C.2   292  LEU292      0.2260
    142  O         59.0970   39.2230   38.7670 O.2   292  LEU292     -0.2867
    143  CB        55.8490   38.6980   38.9060 C.3   292  LEU292      0.0270
    144  CG        54.7170   37.9310   38.2270 C.3   292  LEU292      0.0019
    145  CD1       53.4390   38.7440   38.2820 C.3   292  LEU292      0.0001
    146  CD2       55.0980   37.6060   36.7910 C.3   292  LEU292      0.0001
    147  N         61.7160   37.4230   39.4440 N.3   295  ASN295     -0.1225
    148  CA        62.2270   37.2730   38.0660 C.3   295  ASN295      0.1785
    149  C         62.6190   38.6060   37.4220 C.2   295  ASN295      0.2598
    150  O         63.2580   38.6280   36.3620 O.2   295  ASN295     -0.2718
    151  CB        61.1670   36.6370   37.1520 C.3   295  ASN295      0.1169
    152  CG        61.0480   35.1370   37.3240 C.2   295  ASN295      0.2627
    153  OD1       61.8880   34.4850   37.9510 O.2   295  ASN295     -0.2716
    154  ND2       59.9900   34.5770   36.7520 N.am  295  ASN295     -0.0877
    155  N         62.1840   39.7000   38.0420 N.am  296  SER296     -0.1938
    156  CA        62.4340   41.0400   37.5380 C.3   296  SER296      0.2055
    157  C         63.8470   41.5170   37.8230 C.2   296  SER296      0.2642
    158  O         64.7120   40.7460   38.2380 O.2   296  SER296     -0.2714
    159  CB        61.3940   42.0290   38.0940 C.3   296  SER296      0.2130
    160  OG        61.2190   43.1580   37.2440 O.3   296  SER296     -0.2179
    161  N         64.0630   42.8050   37.5930 N.am  297  LEU297     -0.1977
    162  CA        65.3710   43.4170   37.7380 C.3   297  LEU297      0.1596
    163  C         65.2870   44.7130   38.5050 C.2   297  LEU297      0.2287
    164  O         64.1990   45.1700   38.8690 O.2   297  LEU297     -0.2864
    165  CB        65.9410   43.6900   36.3460 C.3   297  LEU297      0.0297
    166  CG        65.0320   44.4220   35.3540 C.3   297  LEU297      0.0022
    167  CD1       65.1270   45.9120   35.5880 C.3   297  LEU297      0.0001
    168  CD2       65.4700   44.0990   33.9360 C.3   297  LEU297      0.0001
@<TRIPOS>BOND
     1   105   104    2
     2    86    85    1
     3   104   103    1
     4    85    84    1
     5    84    83    1
     6    97    96    2
     7   103   106    1
     8   103   102    1
     9   106   107    1
    10    96   102   am
    11    96    95    1
    12    83    82    1
    13    90    89    2
    14    92    91    1
    15    82    79    1
    16    49    47    1
    17   127   126    2
    18   107   108    1
    19    95    94    1
    20    95    98    1
    21    89    94   am
    22    89    88    1
    23   100    98    1
    24    91    88    1
    25    91    93    1
    26   126   125    1
    27    87    88    1
    28    87    80   am
    29   108   110   ar
    30   108   109   ar
    31    79    80    1
    32    79    78    1
    33   125   124    1
    34   125   128    1
    35    47    46    1
    36    98    99    1
    37    80    81    2
    38    48    46    1
    39    99   101    1
    40   128   129    1
    41    46    43    1
    42    43    42    1
    43    43    44    1
    44    12    11    1
    45    63    62    1
    46    11     9   ar
    47    11    10   ar
    48    44    50   am
    49    44    45    2
    50     9     7   ar
    51    50    51    1
    52    10     8   ar
    53    53    52    2
    54     7     6   ar
    55    62    59    1
    56    62    64    1
    57     1     2    1
    58    52    51    1
    59    52    58   am
    60    51    54    1
    61    59    58    1
    62    59    60    1
    63     8     6   ar
    64     6     5    1
    65     2     5    1
    66     2     3    1
    67    18    17    1
    68    61    60    2
    69    60    65   am
    70    54    55    1
    71    17    14    1
    72    13     3   am
    73    13    14    1
    74     3     4    2
    75   111   112    1
    76   123   122    1
    77   123   117    1
    78    14    15    1
    79    65    66    1
    80    55    57   ar
    81    55    56   ar
    82   113   112    1
    83   113   114    2
    84    38    39    1
    85    38    35    1
    86   122   121    1
    87   117   118    1
    88   112   115    1
    89    39    40    1
    90   130   131    1
    91    66    67    1
    92    66    69    1
    93    37    36    2
    94    40    41    1
    95   120   119    2
    96    15    19   am
    97    15    16    2
    98    67    68    2
    99    36    35    1
   100   121   118    1
   101    19    20    1
   102    35    34    1
   103   133   132    2
   104   118   119    1
   105   115   116    1
   106    69    70    1
   107   131   132    1
   108   131   134    1
   109    34    32   am
   110    22    21    2
   111    20    21    1
   112   134   135    1
   113    75    76    2
   114    75    74    1
   115    21    23   am
   116    70    72   am
   117    70    71    2
   118    77    74    1
   119    32    33    2
   120    32    31    1
   121    74    73    1
   122    30    31    1
   123   168   166    1
   124   135   136    1
   125    25    26    2
   126    25    24    1
   127    23    24    1
   128   137   136   ar
   129    24    27    1
   130   136   138   ar
   131   166   167    1
   132   166   165    1
   133    27    28    1
   134    27    29    1
   135   165   162    1
   136   150   149    2
   137   154   152   am
   138   146   144    1
   139   151   152    1
   140   151   148    1
   141   160   159    1
   142   152   153    2
   143   149   155   am
   144   149   148    1
   145   156   157    1
   146   156   155    1
   147   156   159    1
   148   161   162    1
   149   161   157   am
   150   162   163    1
   151   157   158    2
   152   148   147    1
   153   144   145    1
   154   144   143    1
   155   163   164    2
   156   142   141    2
   157   143   140    1
   158   140   141    1
   159   140   139    1
