@<TRIPOS>MOLECULE
tmp/1g5aA01.pdb
 110 108 0 0 0
SMALL
GASTEIGER

@<TRIPOS>ATOM
      1  N         57.7230   26.3440    4.5920 N.3   226  ARG226     -0.1245
      2  CA        57.4510   25.2330    5.4950 C.3   226  ARG226      0.1563
      3  C         57.3140   25.8050    6.9040 C.2   226  ARG226      0.2260
      4  O         58.0660   26.7010    7.2930 O.2   226  ARG226     -0.2867
      5  CB        58.6080   24.2230    5.4430 C.3   226  ARG226      0.0307
      6  CG        58.5570   23.1260    6.5050 C.3   226  ARG226      0.0489
      7  CD        59.5640   22.0210    6.2070 C.3   226  ARG226      0.2205
      8  NE        60.9570   22.4630    6.2670 N.pl3 226  ARG226     -0.0865
      9  CZ        61.7820   22.2120    7.2810 C.cat 226  ARG226      0.5346
     10  NH1       61.3570   21.5260    8.3340 N.pl3 226  ARG226      0.1354
     11  NH2       63.0450   22.6130    7.2240 N.pl3 226  ARG226      0.1354
     12  N         66.3220   17.5520    4.2170 N.3   332  HIS332     -0.1241
     13  CA        66.4230   16.3610    3.3700 C.3   332  HIS332      0.1621
     14  C         67.8930   15.9490    3.2700 C.2   332  HIS332      0.2264
     15  O         68.7700   16.7980    3.1430 O.2   332  HIS332     -0.2867
     16  CB        65.8610   16.6650    1.9740 C.3   332  HIS332      0.0745
     17  CG        65.7190   15.4590    1.0950 C.ar  332  HIS332      0.0817
     18  ND1       66.7970   14.8380    0.4990 N.ar  332  HIS332     -0.2268
     19  CD2       64.6230   14.7590    0.7150 C.ar  332  HIS332      0.1154
     20  CE1       66.3690   13.8060   -0.2090 C.ar  332  HIS332      0.1986
     21  NE2       65.0550   13.7360   -0.0940 N.ar  332  HIS332     -0.2212
     22  N         62.9970   14.5130   14.4470 N.3   396  GLY396     -0.1210
     23  CA        62.2610   14.6650   13.2020 C.3   396  GLY396      0.1956
     24  C         62.6040   13.4730   12.3220 C.2   396  GLY396      0.2612
     25  O         63.7430   13.0040   12.3380 O.2   396  GLY396     -0.2717
     26  N         61.6400   12.9750   11.5530 N.am  397  TRP397     -0.1962
     27  CA        61.8760   11.8100   10.7030 C.3   397  TRP397      0.1771
     28  C         62.3390   12.2240    9.3130 C.2   397  TRP397      0.2620
     29  O         61.6550   11.9900    8.3110 O.2   397  TRP397     -0.2715
     30  CB        60.5960   10.9770   10.6330 C.3   397  TRP397      0.0590
     31  CG        60.0740   10.6740   12.0040 C.ar  397  TRP397      0.0006
     32  CD1       58.9290   11.1510   12.5710 C.ar  397  TRP397      0.0946
     33  CD2       60.7170    9.8780   13.0080 C.ar  397  TRP397      0.0152
     34  NE1       58.8190   10.7060   13.8650 N.ar  397  TRP397     -0.2442
     35  CE2       59.9030    9.9200   14.1600 C.ar  397  TRP397      0.0810
     36  CE3       61.9040    9.1330   13.0450 C.ar  397  TRP397      0.0012
     37  CZ2       60.2360    9.2450   15.3420 C.ar  397  TRP397      0.0191
     38  CZ3       62.2380    8.4620   14.2200 C.ar  397  TRP397      0.0001
     39  CH2       61.4050    8.5240   15.3510 C.ar  397  TRP397      0.0015
     40  N         63.5310   12.8090    9.2610 N.am  398  THR398     -0.1937
     41  CA        64.0730   13.3140    8.0110 C.3   398  THR398      0.2028
     42  C         64.8040   12.3430    7.0860 C.2   398  THR398      0.2642
     43  O         65.8430   12.6790    6.5170 O.2   398  THR398     -0.2714
     44  CB        64.9710   14.5470    8.2770 C.3   398  THR398      0.1808
     45  OG1       66.0130   14.1980    9.1990 O.3   398  THR398     -0.2208
     46  CG2       64.1390   15.6890    8.8670 C.3   398  THR398      0.0379
     47  N         64.2710   11.1350    6.9340 N.am  399  PHE399     -0.1973
     48  CA        64.8780   10.1950    6.0020 C.3   399  PHE399      0.1639
     49  C         64.2930   10.6000    4.6460 C.2   399  PHE399      0.2290
     50  O         63.2820   11.3010    4.5920 O.2   399  PHE399     -0.2864
     51  CB        64.5300    8.7410    6.3680 C.3   399  PHE399      0.0560
     52  CG        63.0560    8.4460    6.4130 C.ar  399  PHE399     -0.0200
     53  CD1       62.3350    8.2320    5.2390 C.ar  399  PHE399     -0.0042
     54  CD2       62.3900    8.3640    7.6330 C.ar  399  PHE399     -0.0042
     55  CE1       60.9690    7.9400    5.2790 C.ar  399  PHE399     -0.0003
     56  CE2       61.0270    8.0710    7.6860 C.ar  399  PHE399     -0.0003
     57  CZ        60.3150    7.8590    6.5060 C.ar  399  PHE399     -0.0000
     58  N         62.2220   10.2570    1.2890 N.3   401  ASP401     -0.1225
     59  CA        61.0900    9.5050    0.7590 C.3   401  ASP401      0.1805
     60  C         61.5250    8.6870   -0.4560 C.2   401  ASP401      0.2597
     61  O         61.0520    7.5720   -0.6620 O.2   401  ASP401     -0.2718
     62  CB        59.9570   10.4480    0.3390 C.3   401  ASP401      0.1424
     63  CG        59.0340   10.8220    1.4890 C.2   401  ASP401      0.3668
     64  OD1       59.2870   10.3970    2.6350 O.co2 401  ASP401     -0.2456
     65  OD2       58.0440   11.5500    1.2400 O.co2 401  ASP401     -0.2456
     66  N         62.4210    9.2510   -1.2600 N.am  402  GLU402     -0.1979
     67  CA        62.9080    8.5760   -2.4550 C.3   402  GLU402      0.1602
     68  C         63.6790    7.3090   -2.0900 C.2   402  GLU402      0.2287
     69  O         63.5300    6.2780   -2.7470 O.2   402  GLU402     -0.2864
     70  CB        63.7990    9.5180   -3.2780 C.3   402  GLU402      0.0415
     71  CG        63.1010   10.7980   -3.7350 C.3   402  GLU402      0.1163
     72  CD        63.2410   11.9570   -2.7490 C.2   402  GLU402      0.3649
     73  OE1       63.6030   11.7310   -1.5720 O.co2 402  GLU402     -0.2457
     74  OE2       62.9760   13.1070   -3.1610 O.co2 402  GLU402     -0.2457
     75  N         56.0170    7.5050    8.6990 N.3   415  ARG415     -0.1245
     76  CA        56.1770    8.5220    9.7320 C.3   415  ARG415      0.1563
     77  C         54.9830    8.4880   10.6850 C.2   415  ARG415      0.2260
     78  O         55.1270    8.7620   11.8750 O.2   415  ARG415     -0.2867
     79  CB        56.3320    9.9100    9.1040 C.3   415  ARG415      0.0307
     80  CG        57.6080   10.0540    8.2930 C.3   415  ARG415      0.0489
     81  CD        57.8910   11.5000    7.9050 C.3   415  ARG415      0.2205
     82  NE        59.1320   11.6020    7.1420 N.pl3 415  ARG415     -0.0865
     83  CZ        59.2270   11.4220    5.8280 C.cat 415  ARG415      0.5346
     84  NH1       58.1450   11.1430    5.1080 N.pl3 415  ARG415      0.1354
     85  NH2       60.4140   11.4830    5.2380 N.pl3 415  ARG415      0.1354
     86  N         52.2470   16.0760    9.6070 N.3   444  ASP444     -0.1225
     87  CA        53.5900   15.9090   10.1540 C.3   444  ASP444      0.1805
     88  C         53.6010   16.0760   11.6650 C.2   444  ASP444      0.2598
     89  O         52.7330   16.7360   12.2420 O.2   444  ASP444     -0.2718
     90  CB        54.5680   16.9140    9.5400 C.3   444  ASP444      0.1424
     91  CG        54.6880   16.7700    8.0360 C.2   444  ASP444      0.3668
     92  OD1       54.5300   15.6370    7.5260 O.co2 444  ASP444     -0.2456
     93  OD2       54.9580   17.7900    7.3640 O.co2 444  ASP444     -0.2456
     94  N         54.5960   15.4720   12.3010 N.am  445  CYS445     -0.1956
     95  CA        54.7330   15.5480   13.7460 C.3   445  CYS445      0.1843
     96  C         56.1300   15.0890   14.1450 C.2   445  CYS445      0.2625
     97  O         56.7440   14.2720   13.4560 O.2   445  CYS445     -0.2714
     98  CB        53.6830   14.6580   14.4190 C.3   445  CYS445      0.0997
     99  SG        53.5080   14.9190   16.2020 S.3   445  CYS445     -0.0797
    100  N         56.6330   15.6340   15.2480 N.am  446  ARG446     -0.1977
    101  CA        57.9480   15.2610   15.7470 C.3   446  ARG446      0.1597
    102  C         57.8000   14.7020   17.1560 C.2   446  ARG446      0.2287
    103  O         56.7130   14.7560   17.7390 O.2   446  ARG446     -0.2864
    104  CB        58.9000   16.4590   15.7140 C.3   446  ARG446      0.0334
    105  CG        59.2960   16.8580   14.2960 C.3   446  ARG446      0.0492
    106  CD        58.6630   18.1780   13.8750 C.3   446  ARG446      0.2205
    107  NE        59.3800   19.3260   14.4250 N.pl3 446  ARG446     -0.0865
    108  CZ        59.0550   20.5950   14.1840 C.cat 446  ARG446      0.5346
    109  NH1       58.0210   20.8820   13.4030 N.pl3 446  ARG446      0.1354
    110  NH2       59.7690   21.5820   14.7110 N.pl3 446  ARG446      0.1354
@<TRIPOS>BOND
     1    71    70    1
     2    71    72    1
     3    70    67    1
     4    74    72   ar
     5    72    73   ar
     6    69    68    2
     7    67    68    1
     8    67    66    1
     9    66    60   am
    10    61    60    2
    11    60    59    1
    12    20    21   ar
    13    20    18   ar
    14    21    19   ar
    15    62    59    1
    16    62    63    1
    17    18    17   ar
    18    19    17   ar
    19    59    58    1
    20    17    16    1
    21    65    63   ar
    22    63    64   ar
    23    16    13    1
    24    15    14    2
    25    14    13    1
    26    13    12    1
    27    50    49    2
    28     1     2    1
    29    49    48    1
    30    84    83    1
    31    85    83    1
    32    53    55   ar
    33    53    52   ar
    34    55    57   ar
    35     5     2    1
    36     5     6    1
    37     2     3    1
    38    83    82    2
    39    48    51    1
    40    48    47    1
    41     7     8    1
    42     7     6    1
    43     8     9    2
    44    51    52    1
    45    52    54   ar
    46    57    56   ar
    47    43    42    2
    48     3     4    2
    49    47    42   am
    50    42    41    1
    51    82    81    1
    52    11     9    1
    53     9    10    1
    54    93    91   ar
    55    92    91   ar
    56    54    56   ar
    57    81    80    1
    58    41    44    1
    59    41    40    1
    60    91    90    1
    61    44    46    1
    62    44    45    1
    63    80    79    1
    64    29    28    2
    65    75    76    1
    66    79    76    1
    67    40    28   am
    68    28    27    1
    69    90    87    1
    70    86    87    1
    71    76    77    1
    72    87    88    1
    73    30    27    1
    74    30    31    1
    75    77    78    2
    76    27    26    1
    77    26    24   am
    78    88    89    2
    79    88    94   am
    80    31    32   ar
    81    31    33   ar
    82    94    95    1
    83    24    25    2
    84    24    23    1
    85    32    34   ar
    86    33    36   ar
    87    33    35   ar
    88    36    38   ar
    89    23    22    1
    90   109   108    1
    91    97    96    2
    92    95    96    1
    93    95    98    1
    94    34    35   ar
    95   106   105    1
    96   106   107    1
    97    96   100   am
    98    35    37   ar
    99   108   107    2
   100   108   110    1
   101    38    39   ar
   102   105   104    1
   103    98    99    1
   104   100   101    1
   105    37    39   ar
   106   104   101    1
   107   101   102    1
   108   102   103    2
