@<TRIPOS>MOLECULE
tmp/1g5nA01.pdb
 91 86 0 0 0
SMALL
GASTEIGER

@<TRIPOS>ATOM
      1  N         -7.5350   55.6610  -13.2000 N.3     1  ALA1       -0.1231
      2  CA        -7.6670   57.1340  -13.0130 C.3     1  ALA1        0.1694
      3  C         -8.2230   57.4340  -11.6270 C.2     1  ALA1        0.2591
      4  O         -9.0100   56.6560  -11.0890 O.2     1  ALA1       -0.2718
      5  CB        -8.5870   57.7120  -14.0840 C.3     1  ALA1        0.0304
      6  N         -7.8110   58.5600  -11.0520 N.am    2  LEU2       -0.1980
      7  CA        -8.2800   58.9500   -9.7240 C.3     2  LEU2        0.1596
      8  C         -9.7060   59.4880   -9.7890 C.2     2  LEU2        0.2287
      9  O        -10.0050   60.3790  -10.5850 O.2     2  LEU2       -0.2864
     10  CB        -7.3600   60.0160   -9.1230 C.3     2  LEU2        0.0297
     11  CG        -5.9160   59.6220   -8.8010 C.3     2  LEU2        0.0022
     12  CD1       -5.2010   60.8240   -8.2110 C.3     2  LEU2        0.0001
     13  CD2       -5.8880   58.4500   -7.8210 C.3     2  LEU2        0.0001
     14  N          8.8130   61.7610  -11.6810 N.3   161  ASP161     -0.1225
     15  CA         9.0210   60.4920  -12.3520 C.3   161  ASP161      0.1805
     16  C          9.7570   60.7490  -13.6650 C.2   161  ASP161      0.2598
     17  O          9.2740   61.4930  -14.5220 O.2   161  ASP161     -0.2718
     18  CB         7.6790   59.8070  -12.6300 C.3   161  ASP161      0.1424
     19  CG         7.0740   59.1760  -11.3870 C.2   161  ASP161      0.3668
     20  OD1        5.8430   59.0070  -11.3450 O.co2 161  ASP161     -0.2456
     21  OD2        7.8330   58.8330  -10.4570 O.co2 161  ASP161     -0.2456
     22  N         10.9400   60.1600  -13.7980 N.am  162  THR162     -0.1939
     23  CA        11.7380   60.2940  -15.0130 C.3   162  THR162      0.2028
     24  C         12.1360   58.9010  -15.4820 C.2   162  THR162      0.2642
     25  O         11.7120   57.9040  -14.9020 O.2   162  THR162     -0.2714
     26  CB        13.0290   61.1260  -14.7800 C.3   162  THR162      0.1808
     27  OG1       13.7760   60.5690  -13.6900 O.3   162  THR162     -0.2208
     28  CG2       12.6830   62.5750  -14.4750 C.3   162  THR162      0.0379
     29  N         12.9540   58.8350  -16.5280 N.am  163  ALA163     -0.1963
     30  CA        13.3970   57.5550  -17.0590 C.3   163  ALA163      0.1728
     31  C         13.9680   56.7030  -15.9320 C.2   163  ALA163      0.2616
     32  O         14.8000   57.1680  -15.1490 O.2   163  ALA163     -0.2715
     33  CB        14.4490   57.7690  -18.1390 C.3   163  ALA163      0.0334
     34  N         13.5090   55.4600  -15.8450 N.am  164  ILE164     -0.1977
     35  CA        13.9790   54.5500  -14.8110 C.3   164  ILE164      0.1596
     36  C         15.4300   54.1640  -15.0670 C.2   164  ILE164      0.2287
     37  O         15.8130   53.8770  -16.2020 O.2   164  ILE164     -0.2864
     38  CB        13.1080   53.2790  -14.7590 C.3   164  ILE164      0.0276
     39  CG1       11.7070   53.6380  -14.2500 C.3   164  ILE164      0.0022
     40  CG2       13.7560   52.2300  -13.8600 C.3   164  ILE164      0.0022
     41  CD1       11.6990   54.2560  -12.8560 C.3   164  ILE164      0.0001
     42  N          8.2990   58.3580   -7.1000 N.3   200  VAL200     -0.1231
     43  CA         7.3510   57.2830   -6.8480 C.3   200  VAL200      0.1692
     44  C          7.6760   56.0650   -7.7060 C.2   200  VAL200      0.2592
     45  O          7.7460   54.9410   -7.2080 O.2   200  VAL200     -0.2718
     46  CB         5.9100   57.7450   -7.1590 C.3   200  VAL200      0.0266
     47  CG1        4.9330   56.5940   -6.9490 C.3   200  VAL200      0.0020
     48  CG2        5.5440   58.9320   -6.2780 C.3   200  VAL200      0.0020
     49  N          7.8780   56.2930   -9.0000 N.am  201  SER201     -0.1952
     50  CA         8.1840   55.1990   -9.9170 C.3   201  SER201      0.1924
     51  C          9.5050   54.5310   -9.5650 C.2   201  SER201      0.2314
     52  O          9.6360   53.3100   -9.6600 O.2   201  SER201     -0.2863
     53  CB         8.2370   55.7110  -11.3580 C.3   201  SER201      0.2116
     54  OG         9.2950   56.6410  -11.5330 O.3   201  SER201     -0.2180
     55  N          9.0770   52.4100   -6.3420 N.3   204  ARG204     -0.1231
     56  CA         8.2910   51.1970   -6.5340 C.3   204  ARG204      0.1694
     57  C          9.2330   50.1030   -7.0210 C.2   204  ARG204      0.2591
     58  O          9.1210   48.9490   -6.6080 O.2   204  ARG204     -0.2718
     59  CB         7.1590   51.4380   -7.5340 C.3   204  ARG204      0.0321
     60  CG         5.9540   52.1120   -6.8970 C.3   204  ARG204      0.0489
     61  CD         4.9270   52.5610   -7.9180 C.3   204  ARG204      0.2205
     62  NE         3.8340   53.2840   -7.2720 N.pl3 204  ARG204     -0.0865
     63  CZ         2.8110   53.8270   -7.9180 C.cat 204  ARG204      0.5346
     64  NH1        2.7350   53.7310   -9.2400 N.pl3 204  ARG204      0.1354
     65  NH2        1.8680   54.4690   -7.2450 N.pl3 204  ARG204      0.1354
     66  N         10.1750   50.4750   -7.8840 N.am  205  ARG205     -0.1980
     67  CA        11.1490   49.5240   -8.4040 C.3   205  ARG205      0.1597
     68  C         12.0820   49.1160   -7.2740 C.2   205  ARG205      0.2287
     69  O         12.4270   47.9430   -7.1280 O.2   205  ARG205     -0.2864
     70  CB        11.9800   50.1470   -9.5300 C.3   205  ARG205      0.0334
     71  CG        11.1950   50.5410  -10.7700 C.3   205  ARG205      0.0492
     72  CD        10.4600   49.3550  -11.3710 C.3   205  ARG205      0.2205
     73  NE         9.9010   49.6740  -12.6860 N.pl3 205  ARG205     -0.0865
     74  CZ         9.1230   50.7230  -12.9350 C.cat 205  ARG205      0.5346
     75  NH1        8.8050   51.5660  -11.9600 N.pl3 205  ARG205      0.1354
     76  NH2        8.6620   50.9270  -14.1590 N.pl3 205  ARG205      0.1354
     77  N         -4.3980   55.4890   -2.4630 N.3   245  PRO245     -0.2116
     78  CA        -5.7400   54.9660   -2.1990 C.3   245  PRO245      0.1372
     79  C         -5.7070   53.7640   -1.2560 C.2   245  PRO245      0.2244
     80  O         -6.5240   53.6620   -0.3360 O.2   245  PRO245     -0.2868
     81  CB        -6.2390   54.5950   -3.5920 C.3   245  PRO245      0.0268
     82  CG        -5.5970   55.6270   -4.4480 C.3   245  PRO245      0.0207
     83  CD        -4.1840   55.6450   -3.9160 C.3   245  PRO245      0.0892
     84  N        -11.3960   55.1340   -5.6440 N.3   280  ASN280     -0.1240
     85  CA       -10.2530   54.2330   -5.6790 C.3   280  ASN280      0.1653
     86  C        -10.0810   53.6020   -4.3050 C.2   280  ASN280      0.2266
     87  O         -9.7990   52.4080   -4.1870 O.2   280  ASN280     -0.2867
     88  CB        -8.9790   54.9950   -6.0540 C.3   280  ASN280      0.1155
     89  CG        -9.0930   55.7040   -7.3890 C.2   280  ASN280      0.2627
     90  OD1       -9.8640   56.6530   -7.5360 O.2   280  ASN280     -0.2716
     91  ND2       -8.3240   55.2440   -8.3740 N.am  280  ASN280     -0.0877
@<TRIPOS>BOND
     1    33    30    1
     2    30    29    1
     3    30    31    1
     4    29    24   am
     5    37    36    2
     6    31    34   am
     7    31    32    2
     8    34    35    1
     9    24    23    1
    10    24    25    2
    11    36    35    1
    12    23    26    1
    13    23    22    1
    14    35    38    1
    15    26    28    1
    16    26    27    1
    17    38    39    1
    18    38    40    1
    19    17    16    2
    20    39    41    1
    21    76    74    1
    22     5     2    1
    23    22    16   am
    24    16    15    1
    25     1     2    1
    26     2     3    1
    27    74    73    2
    28    74    75    1
    29    73    72    1
    30    18    15    1
    31    18    19    1
    32    15    14    1
    33     3     4    2
    34     3     6   am
    35    54    53    1
    36    19    20   ar
    37    19    21   ar
    38    72    71    1
    39    53    50    1
    40     6     7    1
    41    71    70    1
    42     9     8    2
    43    50    51    1
    44    50    49    1
    45     8     7    1
    46     7    10    1
    47    52    51    2
    48    70    67    1
    49    64    63    1
    50    10    11    1
    51    49    44   am
    52    11    12    1
    53    11    13    1
    54    67    66    1
    55    67    68    1
    56    91    89   am
    57    61    62    1
    58    61    60    1
    59    63    62    2
    60    63    65    1
    61    66    57   am
    62    44    45    2
    63    44    43    1
    64    90    89    2
    65    59    60    1
    66    59    56    1
    67    89    88    1
    68    68    69    2
    69    46    47    1
    70    46    43    1
    71    46    48    1
    72    42    43    1
    73    57    58    2
    74    57    56    1
    75    56    55    1
    76    88    85    1
    77    85    84    1
    78    85    86    1
    79    82    83    1
    80    82    81    1
    81    86    87    2
    82    83    77    1
    83    81    78    1
    84    77    78    1
    85    78    79    1
    86    79    80    2
