@<TRIPOS>MOLECULE
tmp/1g5nA00.pdb
 100 94 0 0 0
SMALL
GASTEIGER

@<TRIPOS>ATOM
      1  N        -32.1600   77.0890    5.4310 N.3    22  ARG22      -0.1245
      2  CA       -32.7750   78.0180    6.3770 C.3    22  ARG22       0.1563
      3  C        -34.0460   77.3830    6.9430 C.2    22  ARG22       0.2260
      4  O        -34.3200   77.4720    8.1420 O.2    22  ARG22      -0.2867
      5  CB       -33.1110   79.3450    5.6810 C.3    22  ARG22       0.0307
      6  CG       -33.7600   80.3980    6.5740 C.3    22  ARG22       0.0489
      7  CD       -32.8960   80.7820    7.7770 C.3    22  ARG22       0.2205
      8  NE       -33.5530   81.8030    8.5900 N.pl3  22  ARG22      -0.0865
      9  CZ       -33.6560   81.7630    9.9160 C.cat  22  ARG22       0.5346
     10  NH1      -33.1380   80.7490   10.5950 N.pl3  22  ARG22       0.1354
     11  NH2      -34.2930   82.7300   10.5620 N.pl3  22  ARG22       0.1354
     12  N        -33.5540   74.6480    9.6360 N.3    25  MET25      -0.1230
     13  CA       -33.1420   75.0840   10.9670 C.3    25  MET25       0.1702
     14  C        -34.0820   76.0850   11.6360 C.2    25  MET25       0.2592
     15  O        -34.2280   76.0810   12.8560 O.2    25  MET25      -0.2718
     16  CB       -31.7300   75.6740   10.9160 C.3    25  MET25       0.0401
     17  CG       -30.6720   74.7030   10.4110 C.3    25  MET25       0.0596
     18  SD       -29.0010   75.3960   10.4370 S.3    25  MET25      -0.1393
     19  CE       -28.9930   76.3390    8.8940 C.3    25  MET25       0.0692
     20  N        -34.7180   76.9430   10.8480 N.am   26  LYS26      -0.1966
     21  CA       -35.6230   77.9290   11.4230 C.3    26  LYS26       0.1728
     22  C        -36.7200   77.2590   12.2480 C.2    26  LYS26       0.2617
     23  O        -37.3350   76.2870   11.8100 O.2    26  LYS26      -0.2715
     24  CB       -36.2580   78.7820   10.3270 C.3    26  LYS26       0.0311
     25  CG       -37.1650   79.8810   10.8670 C.3    26  LYS26       0.0038
     26  CD       -37.9160   80.5970    9.7560 C.3    26  LYS26       0.0206
     27  CE       -36.9780   81.3060    8.7930 C.3    26  LYS26       0.1093
     28  NZ       -37.7450   81.9470    7.6810 N.3    26  LYS26      -0.1314
     29  N        -36.9550   77.7780   13.4480 N.am   27  GLY27      -0.1940
     30  CA       -37.9910   77.2180   14.2990 C.3    27  GLY27       0.2014
     31  C        -37.5000   76.1380   15.2370 C.2    27  GLY27       0.2638
     32  O        -36.3080   75.8330   15.2860 O.2    27  GLY27      -0.2714
     33  N        -38.4280   75.5520   15.9860 N.am   28  LEU28      -0.1977
     34  CA       -38.0950   74.5030   16.9410 C.3    28  LEU28       0.1596
     35  C        -37.5210   73.2650   16.2690 C.2    28  LEU28       0.2287
     36  O        -38.0210   72.8150   15.2390 O.2    28  LEU28      -0.2864
     37  CB       -39.3330   74.0970   17.7370 C.3    28  LEU28       0.0297
     38  CG       -39.0590   73.0800   18.8480 C.3    28  LEU28       0.0022
     39  CD1      -38.3560   73.7830   19.9960 C.3    28  LEU28       0.0001
     40  CD2      -40.3650   72.4560   19.3270 C.3    28  LEU28       0.0001
     41  N        -27.1910   85.8150    8.2830 N.3    60  ARG60      -0.1245
     42  CA       -26.8030   84.8290    9.2890 C.3    60  ARG60       0.1563
     43  C        -25.6420   84.0180    8.7290 C.2    60  ARG60       0.2260
     44  O        -25.4990   83.9000    7.5140 O.2    60  ARG60      -0.2867
     45  CB       -27.9650   83.8770    9.5750 C.3    60  ARG60       0.0307
     46  CG       -29.1000   84.4720   10.3770 C.3    60  ARG60       0.0489
     47  CD       -30.2990   83.5380   10.3610 C.3    60  ARG60       0.2205
     48  NE       -31.1980   83.7810   11.4830 N.pl3  60  ARG60      -0.0865
     49  CZ       -30.9780   83.3520   12.7220 C.cat  60  ARG60       0.5346
     50  NH1      -29.8870   82.6510   13.0050 N.pl3  60  ARG60       0.1354
     51  NH2      -31.8530   83.6230   13.6770 N.pl3  60  ARG60       0.1354
     52  N        -22.1210   78.7380   11.4570 N.3    64  ASN64      -0.1225
     53  CA       -22.4110   79.0210   12.8600 C.3    64  ASN64       0.1785
     54  C        -23.8050   78.5320   13.2410 C.2    64  ASN64       0.2597
     55  O        -24.0150   78.0370   14.3520 O.2    64  ASN64      -0.2718
     56  CB       -22.2780   80.5170   13.1640 C.3    64  ASN64       0.1169
     57  CG       -20.8380   80.9890   13.1390 C.2    64  ASN64       0.2627
     58  OD1      -19.9240   80.2320   13.4590 O.2    64  ASN64      -0.2716
     59  ND2      -20.6290   82.2500   12.7730 N.am   64  ASN64      -0.0877
     60  N        -24.7580   78.6640   12.3210 N.am   65  ASP65      -0.1974
     61  CA       -26.1280   78.2150   12.5720 C.3    65  ASP65       0.1709
     62  C        -26.2120   76.6950   12.6740 C.2    65  ASP65       0.2293
     63  O        -26.9610   76.1590   13.4970 O.2    65  ASP65      -0.2864
     64  CB       -27.0780   78.6900   11.4650 C.3    65  ASP65       0.1436
     65  CG       -27.5300   80.1290   11.6520 C.2    65  ASP65       0.3671
     66  OD1      -28.3940   80.5820   10.8710 O.co2  65  ASP65      -0.2456
     67  OD2      -27.0260   80.8040   12.5760 O.co2  65  ASP65      -0.2456
     68  N        -23.8190   74.7640   13.6510 N.3    67  LYS67      -0.1231
     69  CA       -23.1320   74.3650   14.8720 C.3    67  LYS67       0.1693
     70  C        -24.0780   74.5500   16.0540 C.2    67  LYS67       0.2593
     71  O        -23.9980   73.8260   17.0420 O.2    67  LYS67      -0.2718
     72  CB       -21.8750   75.2050   15.1010 C.3    67  LYS67       0.0285
     73  CG       -20.7010   74.8230   14.2190 C.3    67  LYS67       0.0035
     74  CD       -19.4760   75.6540   14.5500 C.3    67  LYS67       0.0206
     75  CE       -18.3180   75.3040   13.6360 C.3    67  LYS67       0.1093
     76  NZ       -17.1060   76.1140   13.9470 N.3    67  LYS67      -0.1314
     77  N        -24.9730   75.5270   15.9470 N.am   68  SER68      -0.1938
     78  CA       -25.9350   75.7910   17.0060 C.3    68  SER68       0.2055
     79  C        -27.0370   74.7380   16.9960 C.2    68  SER68       0.2642
     80  O        -27.4400   74.2330   18.0420 O.2    68  SER68      -0.2714
     81  CB       -26.5610   77.1770   16.8320 C.3    68  SER68       0.2130
     82  OG       -25.6160   78.2060   17.0630 O.3    68  SER68      -0.2179
     83  N        -27.5110   74.4050   15.8030 N.am   69  GLU69      -0.1976
     84  CA       -28.5850   73.4360   15.6350 C.3    69  GLU69       0.1602
     85  C        -28.1590   71.9770   15.7960 C.2    69  GLU69       0.2287
     86  O        -28.9260   71.1590   16.3010 O.2    69  GLU69      -0.2864
     87  CB       -29.2220   73.6250   14.2530 C.3    69  GLU69       0.0415
     88  CG       -29.8430   75.0050   14.0330 C.3    69  GLU69       0.1163
     89  CD       -31.3190   75.0650   14.4070 C.2    69  GLU69       0.3649
     90  OE1      -31.7940   76.1570   14.7750 O.co2  69  GLU69      -0.2457
     91  OE2      -32.0030   74.0300   14.3130 O.co2  69  GLU69      -0.2457
     92  N        -22.4300   66.7630   13.7180 N.3    75  GLU75      -0.1245
     93  CA       -21.9850   68.1440   13.6010 C.3    75  GLU75       0.1567
     94  C        -20.5430   68.2060   13.1080 C.2    75  GLU75       0.2260
     95  O        -20.2290   68.9430   12.1750 O.2    75  GLU75      -0.2867
     96  CB       -22.0890   68.8680   14.9480 C.3    75  GLU75       0.0388
     97  CG       -21.5590   70.2980   14.9110 C.3    75  GLU75       0.1160
     98  CD       -21.6790   71.0210   16.2430 C.2    75  GLU75       0.3649
     99  OE1      -21.1390   72.1420   16.3590 O.co2  75  GLU75      -0.2457
    100  OE2      -22.3140   70.4760   17.1680 O.co2  75  GLU75      -0.2457
@<TRIPOS>BOND
     1     1     2    1
     2     5     2    1
     3     5     6    1
     4     2     3    1
     5     6     7    1
     6     3     4    2
     7    44    43    2
     8    28    27    1
     9     7     8    1
    10    41    42    1
    11     8     9    2
    12    43    42    1
    13    27    26    1
    14    19    18    1
    15    42    45    1
    16    45    46    1
    17    12    13    1
    18    26    25    1
    19     9    11    1
    20     9    10    1
    21    24    25    1
    22    24    21    1
    23    47    46    1
    24    47    48    1
    25    17    18    1
    26    17    16    1
    27    20    21    1
    28    20    14   am
    29    66    65   ar
    30    16    13    1
    31    13    14    1
    32    21    22    1
    33    52    53    1
    34    64    65    1
    35    64    61    1
    36    48    49    2
    37    14    15    2
    38    65    67   ar
    39    23    22    2
    40    95    94    2
    41    22    29   am
    42    60    61    1
    43    60    54   am
    44    61    62    1
    45    62    63    2
    46    49    50    1
    47    49    51    1
    48    59    57   am
    49    53    56    1
    50    53    54    1
    51    94    93    1
    52    57    56    1
    53    57    58    2
    54    54    55    2
    55    29    30    1
    56    93    92    1
    57    93    96    1
    58    75    76    1
    59    75    74    1
    60    68    69    1
    61    88    87    1
    62    88    89    1
    63    73    74    1
    64    73    72    1
    65    87    84    1
    66    30    31    1
    67    91    89   ar
    68    89    90   ar
    69    69    72    1
    70    69    70    1
    71    97    96    1
    72    97    98    1
    73    31    32    2
    74    31    33   am
    75    36    35    2
    76    84    85    1
    77    84    83    1
    78    85    86    2
    79    83    79   am
    80    77    70   am
    81    77    78    1
    82    33    34    1
    83    70    71    2
    84    98    99   ar
    85    98   100   ar
    86    35    34    1
    87    81    78    1
    88    81    82    1
    89    34    37    1
    90    79    78    1
    91    79    80    2
    92    37    38    1
    93    38    40    1
    94    38    39    1
