@<TRIPOS>MOLECULE
tmp/1g5qG00.pdb
 156 151 0 0 0
SMALL
GASTEIGER

@<TRIPOS>ATOM
      1  N        212.2350  124.6400   19.4140 N.3    13  ILE13      -0.1231
      2  CA       213.5860  124.0900   19.4600 C.3    13  ILE13       0.1692
      3  C        214.2150  124.3530   20.8370 C.2    13  ILE13       0.2592
      4  O        215.0440  123.5770   21.3160 O.2    13  ILE13      -0.2718
      5  CB       214.4810  124.7140   18.3490 C.3    13  ILE13       0.0266
      6  CG1      215.8950  124.1460   18.4320 C.3    13  ILE13       0.0019
      7  CG2      214.5100  126.2400   18.4850 C.3    13  ILE13       0.0020
      8  CD1      215.9690  122.6530   18.2190 C.3    13  ILE13       0.0001
      9  N        213.7900  125.4350   21.4830 N.am   14  ASN14      -0.1974
     10  CA       214.3310  125.8060   22.7900 C.3    14  ASN14       0.1688
     11  C        213.8510  124.9620   23.9710 C.2    14  ASN14       0.2292
     12  O        214.2950  125.1570   25.1080 O.2    14  ASN14      -0.2864
     13  CB       214.0560  127.2880   23.0670 C.3    14  ASN14       0.1181
     14  CG       214.8770  128.2050   22.1750 C.2    14  ASN14       0.2629
     15  OD1      216.1060  128.2620   22.2830 O.2    14  ASN14      -0.2716
     16  ND2      214.2040  128.9150   21.2810 N.am   14  ASN14      -0.0877
     17  N        214.6750  122.1500   24.4490 N.3    16  ILE16      -0.1231
     18  CA       215.8090  121.3130   24.8300 C.3    16  ILE16       0.1692
     19  C        216.5990  121.8990   25.9980 C.2    16  ILE16       0.2592
     20  O        217.4210  121.2150   26.6010 O.2    16  ILE16      -0.2718
     21  CB       216.7930  121.0630   23.6490 C.3    16  ILE16       0.0266
     22  CG1      217.4990  122.3590   23.2590 C.3    16  ILE16       0.0019
     23  CG2      216.0500  120.4800   22.4640 C.3    16  ILE16       0.0020
     24  CD1      218.5320  122.1720   22.1640 C.3    16  ILE16       0.0001
     25  N        216.3430  123.1610   26.3170 N.am   17  ASN17      -0.1974
     26  CA       217.0330  123.8120   27.4250 C.3    17  ASN17       0.1688
     27  C        216.0790  124.1400   28.5550 C.2    17  ASN17       0.2292
     28  O        216.3660  124.9730   29.4100 O.2    17  ASN17      -0.2864
     29  CB       217.7130  125.0940   26.9490 C.3    17  ASN17       0.1181
     30  CG       218.9750  124.8170   26.1640 C.2    17  ASN17       0.2629
     31  OD1      219.3030  125.5560   25.2330 O.2    17  ASN17      -0.2716
     32  ND2      219.7010  123.7480   26.5390 N.am   17  ASN17      -0.0877
     33  N        207.8230  131.8840   21.6340 N.3   115  ASN115     -0.1225
     34  CA       209.1430  131.6410   21.0760 C.3   115  ASN115      0.1785
     35  C        208.9650  131.0130   19.7040 C.2   115  ASN115      0.2597
     36  O        208.3240  129.9720   19.5650 O.2   115  ASN115     -0.2718
     37  CB       209.9830  130.7230   21.9580 C.3   115  ASN115      0.1169
     38  CG       211.4020  130.5760   21.4350 C.2   115  ASN115      0.2627
     39  OD1      211.7030  129.6660   20.6640 O.2   115  ASN115     -0.2716
     40  ND2      212.2770  131.5020   21.8270 N.am  115  ASN115     -0.0877
     41  N        209.5370  131.6560   18.6920 N.am  116  MET116     -0.1965
     42  CA       209.4300  131.1840   17.3190 C.3   116  MET116      0.1736
     43  C        210.2210  132.1370   16.4390 C.2   116  MET116      0.2616
     44  O        210.6800  133.1730   16.9070 O.2   116  MET116     -0.2715
     45  CB       207.9700  131.2220   16.8800 C.3   116  MET116      0.0427
     46  CG       207.3970  132.6250   16.9240 C.3   116  MET116      0.0599
     47  SD       205.6220  132.7000   16.7420 S.3   116  MET116     -0.1393
     48  CE       205.0820  132.3180   18.3980 C.3   116  MET116      0.0692
     49  N        210.3700  131.7860   15.1660 N.am  117  ASN117     -0.1972
     50  CA       211.0700  132.6400   14.2280 C.3   117  ASN117      0.1688
     51  C        210.2760  133.9150   14.0600 C.2   117  ASN117      0.2292
     52  O        209.0440  133.9080   14.1260 O.2   117  ASN117     -0.2864
     53  CB       211.1950  131.9710   12.8660 C.3   117  ASN117      0.1181
     54  CG       212.5900  131.4910   12.5930 C.2   117  ASN117      0.2629
     55  OD1      213.1020  130.6110   13.2830 O.2   117  ASN117     -0.2716
     56  ND2      213.2260  132.0730   11.5900 N.am  117  ASN117     -0.0877
     57  N        207.4820  133.6690   11.6380 N.3   120  MET120     -0.1245
     58  CA       206.2600  133.0320   12.1150 C.3   120  MET120      0.1570
     59  C        205.5210  134.0550   12.9630 C.2   120  MET120      0.2261
     60  O        204.3000  134.1730   12.8960 O.2   120  MET120     -0.2867
     61  CB       206.5870  131.8010   12.9680 C.3   120  MET120      0.0387
     62  CG       207.3140  130.6880   12.2200 C.3   120  MET120      0.0595
     63  SD       207.8650  129.3090   13.2880 S.3   120  MET120     -0.1393
     64  CE       206.3580  128.4550   13.5800 C.3   120  MET120      0.0692
     65  N        220.5200  138.5810   19.8330 N.3   147  LYS147     -0.1231
     66  CA       221.3470  137.6250   19.1090 C.3   147  LYS147      0.1693
     67  C        220.8720  136.2170   19.4180 C.2   147  LYS147      0.2593
     68  O        220.8900  135.7660   20.5670 O.2   147  LYS147     -0.2718
     69  CB       222.8300  137.7840   19.4730 C.3   147  LYS147      0.0285
     70  CG       223.4600  139.0480   18.9030 C.3   147  LYS147      0.0035
     71  CD       223.3380  139.0970   17.3780 C.3   147  LYS147      0.0206
     72  CE       223.7960  140.4400   16.8240 C.3   147  LYS147      0.1093
     73  NZ       223.6280  140.5190   15.3450 N.3   147  LYS147     -0.1314
     74  N        220.4100  135.5460   18.3730 N.am  148  SER148     -0.1938
     75  CA       219.9080  134.1920   18.4820 C.3   148  SER148      0.2055
     76  C        220.7190  133.3370   17.5230 C.2   148  SER148      0.2643
     77  O        220.9840  133.7440   16.3910 O.2   148  SER148     -0.2714
     78  CB       218.4230  134.1630   18.0980 C.3   148  SER148      0.2130
     79  OG       217.8560  132.8810   18.2940 O.3   148  SER148     -0.2179
     80  N        221.1400  132.1640   17.9740 N.am  149  PHE149     -0.1959
     81  CA       221.8990  131.2920   17.0990 C.3   149  PHE149      0.1771
     82  C        220.9340  130.5780   16.1530 C.2   149  PHE149      0.2619
     83  O        220.2450  129.6330   16.5450 O.2   149  PHE149     -0.2715
     84  CB       222.6880  130.2580   17.9000 C.3   149  PHE149      0.0574
     85  CG       223.4860  129.3220   17.0400 C.ar  149  PHE149     -0.0200
     86  CD1      224.6390  129.7620   16.3970 C.ar  149  PHE149     -0.0042
     87  CD2      223.0600  128.0110   16.8340 C.ar  149  PHE149     -0.0042
     88  CE1      225.3550  128.9140   15.5600 C.ar  149  PHE149     -0.0003
     89  CE2      223.7690  127.1540   15.9980 C.ar  149  PHE149     -0.0003
     90  CZ       224.9190  127.6070   15.3590 C.ar  149  PHE149     -0.0000
     91  N        220.8830  131.0510   14.9110 N.am  150  GLU150     -0.1963
     92  CA       220.0220  130.4710   13.8860 C.3   150  GLU150      0.1733
     93  C        220.5670  129.1020   13.4680 C.2   150  GLU150      0.2616
     94  O        221.7210  128.9900   13.0560 O.2   150  GLU150     -0.2715
     95  CB       219.9670  131.4180   12.6850 C.3   150  GLU150      0.0429
     96  CG       219.4400  130.7980   11.4090 C.3   150  GLU150      0.1163
     97  CD       219.3910  131.7890   10.2630 C.2   150  GLU150      0.3649
     98  OE1      219.2510  131.3460    9.1030 O.co2 150  GLU150     -0.2457
     99  OE2      219.4830  133.0090   10.5250 O.co2 150  GLU150     -0.2457
    100  N        219.7400  128.0630   13.5750 N.am  151  ILE151     -0.1963
    101  CA       220.1760  126.7140   13.2210 C.3   151  ILE151      0.1727
    102  C        220.2980  126.4700   11.7150 C.2   151  ILE151      0.2616
    103  O        220.9940  125.5460   11.2950 O.2   151  ILE151     -0.2715
    104  CB       219.2530  125.6270   13.8570 C.3   151  ILE151      0.0290
    105  CG1      217.7900  125.8720   13.4850 C.3   151  ILE151      0.0022
    106  CG2      219.4200  125.6310   15.3690 C.3   151  ILE151      0.0023
    107  CD1      216.8190  124.8680   14.0950 C.3   151  ILE151      0.0001
    108  N        219.6330  127.2980   10.9080 N.am  152  SER152     -0.1950
    109  CA       219.6950  127.1710    9.4470 C.3   152  SER152      0.1924
    110  C        221.1360  127.3820    8.9670 C.2   152  SER152      0.2314
    111  O        221.6160  126.6940    8.0620 O.2   152  SER152     -0.2863
    112  CB       218.7840  128.2080    8.7830 C.3   152  SER152      0.2116
    113  OG       217.4290  128.0030    9.1320 O.3   152  SER152     -0.2180
    114  N        225.1290  133.7630   14.3100 N.3   156  TYR156     -0.1241
    115  CA       224.3000  134.4840   15.2730 C.3   156  TYR156      0.1605
    116  C        223.6930  135.7090   14.6070 C.2   156  TYR156      0.2264
    117  O        224.4070  136.6390   14.2310 O.2   156  TYR156     -0.2867
    118  CB       225.1210  134.9440   16.4840 C.3   156  TYR156      0.0534
    119  CG       225.5930  133.8310   17.3860 C.ar  156  TYR156     -0.0201
    120  CD1      226.5600  132.9220   16.9570 C.ar  156  TYR156     -0.0009
    121  CD2      225.0720  133.6850   18.6720 C.ar  156  TYR156     -0.0009
    122  CE1      226.9980  131.8930   17.7860 C.ar  156  TYR156      0.0417
    123  CE2      225.5010  132.6590   19.5120 C.ar  156  TYR156      0.0417
    124  CZ       226.4650  131.7650   19.0620 C.ar  156  TYR156      0.1957
    125  OH       226.8950  130.7430   19.8810 O.3   156  TYR156     -0.2866
    126  N        216.9460  137.8810   16.1940 N.3   159  ASN159     -0.1225
    127  CA       215.6490  137.2380   16.0980 C.3   159  ASN159      0.1785
    128  C        215.0420  137.1810   17.4900 C.2   159  ASN159      0.2597
    129  O        215.6050  137.7180   18.4450 O.2   159  ASN159     -0.2718
    130  CB       215.8190  135.8160   15.5460 C.3   159  ASN159      0.1169
    131  CG       214.6840  135.4030   14.6140 C.2   159  ASN159      0.2627
    132  OD1      213.5070  135.4380   14.9880 O.2   159  ASN159     -0.2716
    133  ND2      215.0370  135.0070   13.3930 N.am  159  ASN159     -0.0877
    134  N        213.8840  136.5440   17.6030 N.am  160  ILE160     -0.1966
    135  CA       213.2440  136.4020   18.8960 C.3   160  ILE160      0.1727
    136  C        214.1160  135.4780   19.7490 C.2   160  ILE160      0.2617
    137  O        214.6390  134.4710   19.2590 O.2   160  ILE160     -0.2715
    138  CB       211.8290  135.8100   18.7510 C.3   160  ILE160      0.0290
    139  CG1      210.9010  136.8610   18.1390 C.3   160  ILE160      0.0022
    140  CG2      211.3160  135.3280   20.1070 C.3   160  ILE160      0.0023
    141  CD1      209.4780  136.3980   17.9500 C.3   160  ILE160      0.0001
    142  N        214.2890  135.8400   21.0160 N.am  161  THR161     -0.1937
    143  CA       215.0940  135.0470   21.9330 C.3   161  THR161      0.2028
    144  C        214.2910  134.6550   23.1650 C.2   161  THR161      0.2642
    145  O        213.2520  135.2460   23.4510 O.2   161  THR161     -0.2714
    146  CB       216.3570  135.8220   22.3920 C.3   161  THR161      0.1808
    147  OG1      215.9690  137.0820   22.9610 O.3   161  THR161     -0.2208
    148  CG2      217.3050  136.0470   21.2160 C.3   161  THR161      0.0379
    149  N        214.7840  133.6540   23.8880 N.am  162  MET162     -0.1976
    150  CA       214.1250  133.1760   25.0940 C.3   162  MET162      0.1605
    151  C        214.2720  134.2040   26.2120 C.2   162  MET162      0.2287
    152  O        215.2710  134.9070   26.2950 O.2   162  MET162     -0.2864
    153  CB       214.7370  131.8470   25.5280 C.3   162  MET162      0.0413
    154  CG       214.3940  130.6720   24.6220 C.3   162  MET162      0.0598
    155  SD       212.6410  130.2180   24.7010 S.3   162  MET162     -0.1393
    156  CE       212.6120  129.3290   26.2660 C.3   162  MET162      0.0692
@<TRIPOS>BOND
     1   111   110    2
     2   112   113    1
     3   112   109    1
     4   110   109    1
     5    98    97   ar
     6   109   108    1
     7    97    99   ar
     8    97    96    1
     9   108   102   am
    10   103   102    2
    11    96    95    1
    12    56    54   am
    13    57    58    1
    14   102   101    1
    15    58    59    1
    16    58    61    1
    17    62    61    1
    18    62    63    1
    19    54    53    1
    20    54    55    2
    21    95    92    1
    22    53    50    1
    23    60    59    2
    24    94    93    2
    25   101   100    1
    26   101   104    1
    27    63    64    1
    28   133   131   am
    29    93   100   am
    30    93    92    1
    31   105   104    1
    32   105   107    1
    33   104   106    1
    34    92    91    1
    35    51    52    2
    36    51    50    1
    37    50    49    1
    38   117   116    2
    39   114   115    1
    40   116   115    1
    41   131   132    2
    42   131   130    1
    43    91    82   am
    44    49    43   am
    45   115   118    1
    46    73    72    1
    47    90    88   ar
    48    90    89   ar
    49   130   127    1
    50    88    86   ar
    51    89    87   ar
    52   127   126    1
    53   127   128    1
    54    82    83    2
    55    82    81    1
    56    77    76    2
    57    86    85   ar
    58    43    44    2
    59    43    42    1
    60   118   119    1
    61    47    46    1
    62    47    48    1
    63    72    71    1
    64    87    85   ar
    65    45    46    1
    66    45    42    1
    67   120   119   ar
    68   120   122   ar
    69    85    84    1
    70    81    84    1
    71    81    80    1
    72    42    41    1
    73    71    70    1
    74   119   121   ar
    75   128   134   am
    76   128   129    2
    77    76    80   am
    78    76    75    1
    79   134   135    1
    80   122   124   ar
    81   141   139    1
    82    78    79    1
    83    78    75    1
    84   139   138    1
    85     8     6    1
    86     5     6    1
    87     5     7    1
    88     5     2    1
    89    74    75    1
    90    74    67   am
    91   121   123   ar
    92    41    35   am
    93   138   135    1
    94   138   140    1
    95   135   136    1
    96    70    69    1
    97   124   123   ar
    98   124   125    1
    99    66    67    1
   100    66    69    1
   101    66    65    1
   102   137   136    2
   103     1     2    1
   104    67    68    2
   105     2     3    1
   106    36    35    2
   107    35    34    1
   108   136   142   am
   109    39    38    2
   110     3     4    2
   111     3     9   am
   112   142   143    1
   113    34    33    1
   114    34    37    1
   115   148   146    1
   116    16    14   am
   117    38    40   am
   118    38    37    1
   119     9    10    1
   120   143   146    1
   121   143   144    1
   122    24    22    1
   123    14    15    2
   124    14    13    1
   125   146   147    1
   126    23    21    1
   127    10    13    1
   128    10    11    1
   129   144   145    2
   130   144   149   am
   131    22    21    1
   132    21    18    1
   133   149   150    1
   134    11    12    2
   135    17    18    1
   136   154   155    1
   137   154   153    1
   138   155   156    1
   139    18    19    1
   140   150   153    1
   141   150   151    1
   142    31    30    2
   143    19    25   am
   144    19    20    2
   145    30    32   am
   146    30    29    1
   147   151   152    2
   148    25    26    1
   149    29    26    1
   150    26    27    1
   151    27    28    2
