@<TRIPOS>MOLECULE
tmp/1g5sA00.pdb
 199 189 0 0 0
SMALL
GASTEIGER

@<TRIPOS>ATOM
      1  N         14.8970  -20.0200    7.6870 N.3     8  GLU8       -0.1245
      2  CA        14.5210  -19.2570    6.5070 C.3     8  GLU8        0.1567
      3  C         14.9600  -17.8000    6.5560 C.2     8  GLU8        0.2260
      4  O         14.9090  -17.1510    7.5970 O.2     8  GLU8       -0.2867
      5  CB        13.0020  -19.3150    6.2780 C.3     8  GLU8        0.0388
      6  CG        12.1450  -18.7830    7.4270 C.3     8  GLU8        0.1160
      7  CD        10.6740  -18.6970    7.0580 C.2     8  GLU8        0.3649
      8  OE1       10.3260  -17.8820    6.1790 O.co2   8  GLU8       -0.2457
      9  OE2        9.8660  -19.4520    7.6360 O.co2   8  GLU8       -0.2457
     10  N         14.5220  -14.0840    6.1810 N.3    10  ILE10      -0.1231
     11  CA        13.2950  -13.3210    6.3660 C.3    10  ILE10       0.1692
     12  C         13.4570  -11.8460    6.0280 C.2    10  ILE10       0.2593
     13  O         12.5780  -11.0360    6.3210 O.2    10  ILE10      -0.2718
     14  CB        12.7690  -13.4460    7.8160 C.3    10  ILE10       0.0266
     15  CG1       13.6980  -12.7120    8.7850 C.3    10  ILE10       0.0019
     16  CG2       12.6960  -14.9100    8.2130 C.3    10  ILE10       0.0020
     17  CD1       13.2230  -12.7450   10.2240 C.3    10  ILE10       0.0001
     18  N         14.5850  -11.4970    5.4170 N.am   11  GLY11      -0.1942
     19  CA        14.8050  -10.1120    5.0470 C.3    11  GLY11       0.2014
     20  C         16.2480   -9.6840    4.8750 C.2    11  GLY11       0.2639
     21  O         17.1770  -10.4440    5.1230 O.2    11  GLY11      -0.2714
     22  N         16.4210   -8.4360    4.4510 N.am   12  GLU12      -0.1963
     23  CA        17.7320   -7.8350    4.2230 C.3    12  GLU12       0.1733
     24  C         17.8290   -6.6930    5.2320 C.2    12  GLU12       0.2617
     25  O         17.1270   -5.6960    5.1070 O.2    12  GLU12      -0.2715
     26  CB        17.7880   -7.2590    2.8110 C.3    12  GLU12       0.0429
     27  CG        17.1120   -8.1300    1.7670 C.3    12  GLU12       0.1163
     28  CD        16.6540   -7.3180    0.5750 C.2    12  GLU12       0.3649
     29  OE1       15.9410   -6.3190    0.7980 O.co2  12  GLU12      -0.2457
     30  OE2       16.9920   -7.6710   -0.5740 O.co2  12  GLU12      -0.2457
     31  N         18.6980   -6.8340    6.2250 N.am   13  GLY13      -0.1940
     32  CA        18.8300   -5.8080    7.2460 C.3    13  GLY13       0.2014
     33  C         19.6390   -4.5800    6.8760 C.2    13  GLY13       0.2639
     34  O         19.8750   -4.3020    5.7000 O.2    13  GLY13      -0.2714
     35  N         20.0640   -3.8410    7.8960 N.am   14  THR14      -0.1950
     36  CA        20.8530   -2.6310    7.7000 C.3    14  THR14       0.1897
     37  C         22.2110   -2.9510    7.0880 C.2    14  THR14       0.2313
     38  O         22.5230   -2.5120    5.9800 O.2    14  THR14      -0.2863
     39  CB        21.0930   -1.9010    9.0310 C.3    14  THR14       0.1794
     40  OG1       21.8440   -2.7480    9.9100 O.3    14  THR14      -0.2208
     41  CG2       19.7650   -1.5360    9.6850 C.3    14  THR14       0.0378
     42  N         19.0050  -11.2130    7.5860 N.3    18  VAL18      -0.1245
     43  CA        18.3160  -11.6350    8.7950 C.3    18  VAL18       0.1561
     44  C         17.5820  -12.9490    8.5440 C.2    18  VAL18       0.2260
     45  O         16.7810  -13.0460    7.6180 O.2    18  VAL18      -0.2867
     46  CB        17.3000  -10.5570    9.2530 C.3    18  VAL18       0.0252
     47  CG1       16.5060  -11.0580   10.4380 C.3    18  VAL18       0.0019
     48  CG2       18.0350   -9.2790    9.6240 C.3    18  VAL18       0.0019
     49  N         15.4670  -16.5130   10.2730 N.3    20  LYS20      -0.1245
     50  CA        14.6840  -17.0830   11.3520 C.3    20  LYS20       0.1561
     51  C         15.4670  -18.3780   11.5660 C.2    20  LYS20       0.2260
     52  O         15.8380  -19.0400   10.5930 O.2    20  LYS20      -0.2867
     53  CB        13.2610  -17.3930   10.8680 C.3    20  LYS20       0.0271
     54  CG        12.3340  -17.9990   11.9000 C.3    20  LYS20       0.0035
     55  CD        11.0670  -18.4970   11.2220 C.3    20  LYS20       0.0206
     56  CE        10.1110  -19.1740   12.1850 C.3    20  LYS20       0.1093
     57  NZ         8.9340  -19.7460   11.4800 N.3    20  LYS20      -0.1314
     58  N         15.9430  -15.0090   15.9190 N.3    31  ALA31      -0.1245
     59  CA        16.2080  -14.2230   14.7160 C.3    31  ALA31       0.1562
     60  C         17.6890  -13.8860   14.6240 C.2    31  ALA31       0.2260
     61  O         18.2740  -13.3550   15.5690 O.2    31  ALA31      -0.2867
     62  CB        15.3910  -12.9490   14.7360 C.3    31  ALA31       0.0290
     63  N         20.9800  -12.0350   12.5960 N.3    33  LYS33      -0.1245
     64  CA        21.4120  -10.9510   11.7460 C.3    33  LYS33       0.1561
     65  C         22.8950  -11.2280   11.5380 C.2    33  LYS33       0.2260
     66  O         23.6840  -11.1870   12.4850 O.2    33  LYS33      -0.2867
     67  CB        21.2000   -9.5970   12.4410 C.3    33  LYS33       0.0271
     68  CG        21.6140   -8.3800   11.6150 C.3    33  LYS33       0.0035
     69  CD        21.3220   -7.0740   12.3530 C.3    33  LYS33       0.0206
     70  CE        21.8710   -5.8500   11.6120 C.3    33  LYS33       0.1093
     71  NZ        21.2840   -5.6480   10.2540 N.3    33  LYS33      -0.1314
     72  N         13.3390   -4.8090   20.8140 N.3    55  VAL55      -0.1245
     73  CA        13.6150   -6.2090   20.5390 C.3    55  VAL55       0.1561
     74  C         14.7790   -6.6320   21.4290 C.2    55  VAL55       0.2260
     75  O         15.7210   -5.8730   21.6470 O.2    55  VAL55      -0.2867
     76  CB        13.9760   -6.4200   19.0550 C.3    55  VAL55       0.0252
     77  CG1       14.3740   -7.8670   18.8030 C.3    55  VAL55       0.0019
     78  CG2       12.7910   -6.0590   18.1920 C.3    55  VAL55       0.0019
     79  N         18.6330  -12.2010   18.1380 N.3    71  PHE71      -0.1227
     80  CA        17.5270  -11.4870   18.7650 C.3    71  PHE71       0.1736
     81  C         16.3260  -12.3700   19.0780 C.2    71  PHE71       0.2595
     82  O         16.1530  -13.4360   18.4890 O.2    71  PHE71      -0.2718
     83  CB        17.0210  -10.3560   17.8650 C.3    71  PHE71       0.0547
     84  CG        18.0440   -9.3100   17.5460 C.ar   71  PHE71      -0.0202
     85  CD1       18.8670   -9.4470   16.4370 C.ar   71  PHE71      -0.0042
     86  CD2       18.1490   -8.1660   18.3320 C.ar   71  PHE71      -0.0042
     87  CE1       19.7760   -8.4540   16.1040 C.ar   71  PHE71      -0.0003
     88  CE2       19.0640   -7.1590   18.0060 C.ar   71  PHE71      -0.0003
     89  CZ        19.8760   -7.3090   16.8840 C.ar   71  PHE71      -0.0000
     90  N         15.4810  -11.9160   19.9980 N.am   72  GLU72      -0.1965
     91  CA        14.2660  -12.6570   20.3080 C.3    72  GLU72       0.1733
     92  C         13.4920  -12.6460   18.9870 C.2    72  GLU72       0.2616
     93  O         13.6920  -11.7480   18.1660 O.2    72  GLU72      -0.2715
     94  CB        13.4560  -11.9270   21.3800 C.3    72  GLU72       0.0429
     95  CG        13.0180  -10.5230   20.9730 C.3    72  GLU72       0.1163
     96  CD        12.0650   -9.9080   21.9760 C.2    72  GLU72       0.3649
     97  OE1       10.9500  -10.4440   22.1310 O.co2  72  GLU72      -0.2457
     98  OE2       12.4240   -8.8940   22.6120 O.co2  72  GLU72      -0.2457
     99  N         12.6120  -13.6180   18.7730 N.am   73  PHE73      -0.1960
    100  CA        11.8560  -13.6610   17.5240 C.3    73  PHE73       0.1771
    101  C         10.4400  -13.1060   17.6430 C.2    73  PHE73       0.2619
    102  O          9.6420  -13.5690   18.4600 O.2    73  PHE73      -0.2715
    103  CB        11.7690  -15.0840   16.9920 C.3    73  PHE73       0.0574
    104  CG        11.0240  -15.1940   15.6900 C.ar   73  PHE73      -0.0200
    105  CD1       11.6260  -14.8230   14.4900 C.ar   73  PHE73      -0.0042
    106  CD2        9.6930  -15.5950   15.6760 C.ar   73  PHE73      -0.0042
    107  CE1       10.9090  -14.8510   13.2940 C.ar   73  PHE73      -0.0003
    108  CE2        8.9700  -15.6210   14.4940 C.ar   73  PHE73      -0.0003
    109  CZ         9.5780  -15.2490   13.2990 C.ar   73  PHE73      -0.0000
    110  N         10.1310  -12.1240   16.8020 N.am   74  LEU74      -0.1963
    111  CA         8.8070  -11.5070   16.7940 C.3    74  LEU74       0.1728
    112  C          7.9220  -11.9830   15.6410 C.2    74  LEU74       0.2616
    113  O          8.3900  -12.2510   14.5320 O.2    74  LEU74      -0.2715
    114  CB         8.9280   -9.9780   16.7720 C.3    74  LEU74       0.0311
    115  CG         9.1950   -9.2780   18.1120 C.3    74  LEU74       0.0022
    116  CD1        7.9260   -9.2390   18.9320 C.3    74  LEU74       0.0001
    117  CD2       10.2970   -9.9970   18.8670 C.3    74  LEU74       0.0001
    118  N          6.6290  -12.0610   15.9330 N.am   75  HIS75      -0.1959
    119  CA         5.5900  -12.5230   15.0160 C.3    75  HIS75       0.1787
    120  C          5.4470  -11.8530   13.6470 C.2    75  HIS75       0.2620
    121  O          5.2290  -12.5330   12.6430 O.2    75  HIS75      -0.2715
    122  CB         4.2350  -12.4260   15.7250 C.3    75  HIS75       0.0785
    123  CG         4.2160  -13.0930   17.0720 C.ar   75  HIS75       0.0821
    124  ND1        3.1660  -12.9430   17.9500 N.ar   75  HIS75      -0.2267
    125  CD2        5.1110  -13.8940   17.6870 C.ar   75  HIS75       0.1154
    126  CE1        3.4240  -13.6230   19.0590 C.ar   75  HIS75       0.1986
    127  NE2        4.6010  -14.2080   18.9150 N.ar   75  HIS75      -0.2212
    128  N          5.5690  -10.5310   13.6010 N.am   76  GLN76      -0.1963
    129  CA         5.3780   -9.8240   12.3360 C.3    76  GLN76       0.1733
    130  C          5.8050   -8.3510   12.4460 C.2    76  GLN76       0.2616
    131  O          5.8200   -7.7870   13.5360 O.2    76  GLN76      -0.2715
    132  CB         3.8890   -9.9280   11.9710 C.3    76  GLN76       0.0408
    133  CG         3.4660   -9.4120   10.6140 C.3    76  GLN76       0.0908
    134  CD         1.9630   -9.5280   10.4190 C.2    76  GLN76       0.2608
    135  OE1        1.1870   -8.8380   11.0820 O.2    76  GLN76      -0.2717
    136  NE2        1.5440  -10.4160    9.5250 N.am   76  GLN76      -0.0878
    137  N          6.1500   -7.7330   11.3200 N.am   77  ASP77      -0.1971
    138  CA         6.5510   -6.3290   11.3300 C.3    77  ASP77       0.1709
    139  C          5.3490   -5.4500   11.0000 C.2    77  ASP77       0.2293
    140  O          4.3270   -5.9400   10.5310 O.2    77  ASP77      -0.2864
    141  CB         7.6840   -6.0600   10.3260 C.3    77  ASP77       0.1436
    142  CG         7.2540   -6.2520    8.8820 C.2    77  ASP77       0.3671
    143  OD1        7.4840   -5.3310    8.0690 O.co2  77  ASP77      -0.2456
    144  OD2        6.6990   -7.3260    8.5590 O.co2  77  ASP77      -0.2456
    145  N         16.8890    5.3630   12.0660 N.3   118  ASP118     -0.1239
    146  CA        16.2720    4.8100   10.8690 C.3   118  ASP118      0.1674
    147  C         14.8910    4.2000   11.1430 C.2   118  ASP118      0.2266
    148  O         14.5670    3.1050   10.6950 O.2   118  ASP118     -0.2867
    149  CB        17.2380    3.7810   10.2670 C.3   118  ASP118      0.1410
    150  CG        16.9060    3.4340    8.8310 C.2   118  ASP118      0.3668
    151  OD1       16.5450    4.3610    8.0760 O.co2 118  ASP118     -0.2456
    152  OD2       17.0340    2.2510    8.4480 O.co2 118  ASP118     -0.2456
    153  N         11.1230    3.2360   10.9220 N.3   120  LYS120     -0.1245
    154  CA        10.2090    2.9570    9.8120 C.3   120  LYS120      0.1561
    155  C          9.2860    1.7970   10.1590 C.2   120  LYS120      0.2260
    156  O          9.5060    1.0810   11.1390 O.2   120  LYS120     -0.2867
    157  CB        10.9800    2.5380    8.5620 C.3   120  LYS120      0.0271
    158  CG        11.9130    3.5550    7.9670 C.3   120  LYS120      0.0035
    159  CD        12.7070    2.8920    6.8490 C.3   120  LYS120      0.0206
    160  CE        13.4060    1.6340    7.3710 C.3   120  LYS120      0.1093
    161  NZ        14.2490    0.9490    6.3510 N.3   120  LYS120     -0.1314
    162  N          9.0040   -1.0030    8.7600 N.3   122  GLN122     -0.1231
    163  CA         9.7220   -2.2770    8.6980 C.3   122  GLN122      0.1698
    164  C         10.6250   -2.5230    9.8970 C.2   122  GLN122      0.2592
    165  O         11.0030   -3.6660   10.1590 O.2   122  GLN122     -0.2718
    166  CB        10.5540   -2.4010    7.4140 C.3   122  GLN122      0.0381
    167  CG         9.7640   -2.1520    6.1530 C.3   122  GLN122      0.0905
    168  CD         9.8990   -0.7260    5.6600 C.2   122  GLN122      0.2608
    169  OE1       10.8770   -0.3820    4.9970 O.2   122  GLN122     -0.2717
    170  NE2        8.9290    0.1160    5.9970 N.am  122  GLN122     -0.0878
    171  N         10.9870   -1.4660   10.6200 N.am  123  ASN123     -0.1974
    172  CA        11.8340   -1.6450   11.7920 C.3   123  ASN123      0.1688
    173  C         11.0020   -1.6250   13.0720 C.2   123  ASN123      0.2292
    174  O         11.5100   -1.3240   14.1520 O.2   123  ASN123     -0.2864
    175  CB        12.9250   -0.5730   11.8720 C.3   123  ASN123      0.1181
    176  CG        13.9390   -0.6930   10.7480 C.2   123  ASN123      0.2629
    177  OD1       14.1310   -1.7740   10.1940 O.2   123  ASN123     -0.2716
    178  ND2       14.6290    0.4000   10.4410 N.am  123  ASN123     -0.0877
    179  N          8.2940   -4.1420   15.1230 N.3   125  LEU125     -0.1245
    180  CA         7.7450   -5.4940   15.2030 C.3   125  LEU125      0.1561
    181  C          6.6420   -5.6380   16.2400 C.2   125  LEU125      0.2260
    182  O          6.6730   -4.9900   17.2850 O.2   125  LEU125     -0.2867
    183  CB         8.8700   -6.4830   15.5160 C.3   125  LEU125      0.0270
    184  CG        10.0550   -6.4060   14.5510 C.3   125  LEU125      0.0019
    185  CD1       11.1610   -7.3310   15.0270 C.3   125  LEU125      0.0001
    186  CD2        9.6190   -6.7710   13.1410 C.3   125  LEU125      0.0001
    187  N         12.9860   -2.0150   16.4710 N.3   135  ALA135     -0.1231
    188  CA        14.0130   -2.9620   16.0590 C.3   135  ALA135      0.1694
    189  C         15.0620   -2.3510   15.1420 C.2   135  ALA135      0.2592
    190  O         14.8910   -1.2440   14.6330 O.2   135  ALA135     -0.2718
    191  CB        13.3670   -4.1500   15.3700 C.3   135  ALA135      0.0304
    192  N         16.1600   -3.0770   14.9660 N.am  136  ASP136     -0.1974
    193  CA        17.2460   -2.6730   14.0790 C.3   136  ASP136      0.1709
    194  C         17.7550   -1.2350   14.2210 C.2   136  ASP136      0.2293
    195  O         17.5460   -0.4150   13.3260 O.2   136  ASP136     -0.2864
    196  CB        16.7930   -2.8830   12.6350 C.3   136  ASP136      0.1436
    197  CG        17.8850   -3.4420   11.7670 C.2   136  ASP136      0.3671
    198  OD1       17.6850   -3.5260   10.5350 O.co2 136  ASP136     -0.2456
    199  OD2       18.9390   -3.8140   12.3140 O.co2 136  ASP136     -0.2456
@<TRIPOS>BOND
     1    30    28   ar
     2    28    29   ar
     3    28    27    1
     4    27    26    1
     5    26    23    1
     6    23    22    1
     7    23    24    1
     8    22    20   am
     9    20    19    1
    10    20    21    2
    11   169   168    2
    12    19    18    1
    13    25    24    2
    14    24    31   am
    15    18    12   am
    16   168   170   am
    17   168   167    1
    18    34    33    2
    19    38    37    2
    20    12    13    2
    21    12    11    1
    22   167   166    1
    23     8     7   ar
    24    10    11    1
    25    31    32    1
    26     5     2    1
    27     5     6    1
    28   161   160    1
    29    11    14    1
    30     2     3    1
    31     2     1    1
    32     3     4    2
    33   159   160    1
    34   159   158    1
    35    33    32    1
    36    33    35   am
    37     7     6    1
    38     7     9   ar
    39    37    36    1
    40   166   163    1
    41    42    43    1
    42    45    44    2
    43    36    35    1
    44    36    39    1
    45    14    16    1
    46    14    15    1
    47   158   157    1
    48   143   142   ar
    49   151   150   ar
    50   152   150   ar
    51    44    43    1
    52   144   142   ar
    53   157   154    1
    54   163   162    1
    55   163   164    1
    56    15    17    1
    57    43    46    1
    58   150   149    1
    59   142   141    1
    60    39    41    1
    61    39    40    1
    62    46    48    1
    63    46    47    1
    64   136   134   am
    65   154   155    1
    66   154   153    1
    67   164   165    2
    68   164   171   am
    69   155   156    2
    70   177   176    2
    71    71    70    1
    72   149   146    1
    73    49    50    1
    74   141   138    1
    75   134   133    1
    76   134   135    2
    77   178   176   am
    78   140   139    2
    79   198   197   ar
    80    52    51    2
    81   133   132    1
    82   171   172    1
    83   148   147    2
    84   176   175    1
    85    53    50    1
    86    53    54    1
    87   146   147    1
    88   146   145    1
    89   139   138    1
    90    55    54    1
    91    55    56    1
    92   137   138    1
    93   137   130   am
    94    50    51    1
    95    57    56    1
    96    65    64    1
    97    65    66    2
    98    70    69    1
    99    68    69    1
   100    68    67    1
   101    64    67    1
   102    64    63    1
   103   197   199   ar
   104   197   196    1
   105   172   175    1
   106   172   173    1
   107   132   129    1
   108   129   130    1
   109   129   128    1
   110   130   131    2
   111   196   193    1
   112   121   120    2
   113   173   174    2
   114   186   184    1
   115   107   109   ar
   116   107   105   ar
   117   109   108   ar
   118   195   194    2
   119   128   120   am
   120   120   119    1
   121   193   194    1
   122   193   192    1
   123   105   104   ar
   124   108   106   ar
   125   113   112    2
   126   184   185    1
   127   184   183    1
   128    60    59    1
   129    60    61    2
   130   190   189    2
   131    59    62    1
   132    59    58    1
   133   192   189   am
   134   119   122    1
   135   119   118    1
   136   179   180    1
   137   189   188    1
   138   180   183    1
   139   180   181    1
   140   191   188    1
   141   112   118   am
   142   112   111    1
   143   106   104   ar
   144   104   103    1
   145   122   123    1
   146   188   187    1
   147    87    85   ar
   148    87    89   ar
   149   181   182    2
   150    85    84   ar
   151   114   111    1
   152   114   115    1
   153   111   110    1
   154   110   101   am
   155    89    88   ar
   156   103   100    1
   157   123   125   ar
   158   123   124   ar
   159   100   101    1
   160   100    99    1
   161    84    83    1
   162    84    86   ar
   163   101   102    2
   164   125   127   ar
   165    83    80    1
   166   124   126   ar
   167    88    86   ar
   168   115   117    1
   169   115   116    1
   170    79    80    1
   171    93    92    2
   172    78    76    1
   173    82    81    2
   174    80    81    1
   175    99    92   am
   176    77    76    1
   177   127   126   ar
   178    92    91    1
   179    76    73    1
   180    81    90   am
   181    90    91    1
   182    91    94    1
   183    73    72    1
   184    73    74    1
   185    95    94    1
   186    95    96    1
   187    74    75    2
   188    96    97   ar
   189    96    98   ar
