@<TRIPOS>MOLECULE
tmp/1g60A00.pdb
 216 216 0 0 0
SMALL
GASTEIGER

@<TRIPOS>ATOM
      1  N        -11.9590   51.7220   -7.2610 N.3    10  MET10      -0.1230
      2  CA       -12.3530   50.3400   -7.3070 C.3    10  MET10       0.1702
      3  C        -11.5940   49.5120   -6.2580 C.2    10  MET10       0.2592
      4  O        -10.4770   49.8860   -5.8820 O.2    10  MET10      -0.2718
      5  CB       -12.0110   49.7290   -8.6810 C.3    10  MET10       0.0401
      6  CG       -12.6520   50.4150   -9.8910 C.3    10  MET10       0.0596
      7  SD       -11.9760   49.8750  -11.4810 S.3    10  MET10      -0.1393
      8  CE       -12.9490   48.4040  -11.6830 C.3    10  MET10       0.0692
      9  N        -12.2390   48.4260   -5.8630 N.am   11  ASN11      -0.1960
     10  CA       -11.5810   47.3940   -5.0760 C.3    11  ASN11       0.1819
     11  C        -10.5140   46.7470   -5.9560 C.2    11  ASN11       0.2621
     12  O        -10.7500   46.6120   -7.1690 O.2    11  ASN11      -0.2715
     13  CB       -12.6600   46.3840   -4.6700 C.3    11  ASN11       0.1195
     14  CG       -12.0730   45.1020   -4.1340 C.2    11  ASN11       0.2630
     15  OD1      -11.8240   44.9970   -2.9140 O.2    11  ASN11      -0.2716
     16  ND2      -11.8790   44.1590   -5.0350 N.am   11  ASN11      -0.0877
     17  N         -9.3460   46.3150   -5.4430 N.am   12  CYS12      -0.1954
     18  CA        -8.3360   45.7200   -6.3170 C.3    12  CYS12       0.1843
     19  C         -8.7660   44.5080   -7.1180 C.2    12  CYS12       0.2625
     20  O         -8.2700   44.3140   -8.2440 O.2    12  CYS12      -0.2714
     21  CB        -7.0600   45.3380   -5.5270 C.3    12  CYS12       0.0997
     22  SG        -7.3730   44.2040   -4.1300 S.3    12  CYS12      -0.0797
     23  N         -9.6220   43.6420   -6.5870 N.am   13  PHE13      -0.1974
     24  CA       -10.0380   42.4440   -7.3170 C.3    13  PHE13       0.1639
     25  C        -10.9730   42.8210   -8.4690 C.2    13  PHE13       0.2290
     26  O        -10.8310   42.3230   -9.5950 O.2    13  PHE13      -0.2864
     27  CB       -10.7040   41.4680   -6.3420 C.3    13  PHE13       0.0560
     28  CG        -9.7660   41.0760   -5.2100 C.ar   13  PHE13      -0.0200
     29  CD1       -8.6720   40.2730   -5.4860 C.ar   13  PHE13      -0.0042
     30  CD2       -9.9870   41.5160   -3.9170 C.ar   13  PHE13      -0.0042
     31  CE1       -7.7900   39.9010   -4.4800 C.ar   13  PHE13      -0.0003
     32  CE2       -9.1150   41.1320   -2.9100 C.ar   13  PHE13      -0.0003
     33  CZ        -8.0230   40.3330   -3.1900 C.ar   13  PHE13      -0.0000
     34  N          2.4210   48.4600   -3.7210 N.3    30  ASP30      -0.1225
     35  CA         2.6890   48.7410   -2.2890 C.3    30  ASP30       0.1790
     36  C          1.3490   48.4210   -1.6200 C.2    30  ASP30       0.2440
     37  O          0.4750   49.3010   -1.5890 O.2    30  ASP30      -0.2733
     38  CB         3.0620   50.2080   -2.1800 C.3    30  ASP30       0.1423
     39  CG         3.2730   50.6810   -0.7530 C.2    30  ASP30       0.3668
     40  OD1        3.3410   51.9090   -0.5320 O.co2  30  ASP30      -0.2456
     41  OD2        3.3800   49.7830    0.0970 O.co2  30  ASP30      -0.2456
     42  N          1.1630   47.1880   -1.1920 N.am   31  PRO31      -0.2718
     43  CA        -0.0830   46.6970   -0.6430 C.3    31  PRO31       0.1520
     44  C         -0.1170   46.7380    0.8780 C.2    31  PRO31       0.2440
     45  O          0.8100   47.2290    1.4960 O.2    31  PRO31      -0.2731
     46  CB        -0.0060   45.2350   -1.0650 C.3    31  PRO31       0.0310
     47  CG         1.4600   44.8830   -0.8340 C.3    31  PRO31       0.0237
     48  CD         2.2140   46.1250   -1.1640 C.3    31  PRO31       0.0939
     49  N         -1.1960   46.2250    1.4410 N.am   32  PRO32      -0.2716
     50  CA        -1.2480   46.1410    2.9040 C.3    32  PRO32       0.1536
     51  C         -0.0300   45.3510    3.3780 C.2    32  PRO32       0.2598
     52  O          0.3960   44.3490    2.7690 O.2    32  PRO32      -0.2715
     53  CB        -2.5080   45.3200    3.1540 C.3    32  PRO32       0.0310
     54  CG        -3.3980   45.7270    2.0240 C.3    32  PRO32       0.0237
     55  CD        -2.4440   45.7310    0.8130 C.3    32  PRO32       0.0939
     56  N          0.4830   45.7500    4.5390 N.am   33  TYR33      -0.1974
     57  CA         1.5890   45.0330    5.1660 C.3    33  TYR33       0.1639
     58  C          1.1280   44.2750    6.4260 C.2    33  TYR33       0.2290
     59  O          2.0140   43.7180    7.0830 O.2    33  TYR33      -0.2864
     60  CB         2.6940   45.9650    5.6180 C.3    33  TYR33       0.0560
     61  CG         3.5960   46.6850    4.6510 C.ar   33  TYR33      -0.0198
     62  CD1        3.2920   46.8340    3.3040 C.ar   33  TYR33      -0.0009
     63  CD2        4.7650   47.2620    5.1280 C.ar   33  TYR33      -0.0009
     64  CE1        4.1380   47.5620    2.4730 C.ar   33  TYR33       0.0417
     65  CE2        5.6530   47.9420    4.3100 C.ar   33  TYR33       0.0417
     66  CZ         5.3010   48.0830    2.9650 C.ar   33  TYR33       0.1957
     67  OH         6.1520   48.8330    2.1700 O.3    33  TYR33      -0.2866
     68  N         -7.9800   48.6940    6.3760 N.3    40  TRP40      -0.1241
     69  CA        -7.5720   47.8350    5.2640 C.3    40  TRP40       0.1605
     70  C         -6.2570   47.1210    5.5290 C.2    40  TRP40       0.2264
     71  O         -5.8400   46.3240    4.6750 O.2    40  TRP40      -0.2867
     72  CB        -7.4380   48.6640    3.9750 C.3    40  TRP40       0.0550
     73  CG        -6.6290   49.9140    4.1110 C.ar   40  TRP40       0.0003
     74  CD1       -7.1300   51.1770    4.2360 C.ar   40  TRP40       0.0946
     75  CD2       -5.2030   50.0500    4.1290 C.ar   40  TRP40       0.0152
     76  NE1       -6.1100   52.0890    4.3250 N.ar   40  TRP40      -0.2442
     77  CE2       -4.9100   51.4200    4.2800 C.ar   40  TRP40       0.0810
     78  CE3       -4.1340   49.1520    4.0450 C.ar   40  TRP40       0.0012
     79  CZ2       -3.6180   51.9230    4.3370 C.ar   40  TRP40       0.0191
     80  CZ3       -2.8430   49.6630    4.1180 C.ar   40  TRP40       0.0001
     81  CH2       -2.5830   51.0290    4.2600 C.ar   40  TRP40       0.0015
     82  N         -5.2580   36.6710    1.2520 N.3    52  PHE52      -0.1241
     83  CA        -5.6150   37.8940    0.5610 C.3    52  PHE52       0.1605
     84  C         -4.4860   38.2530   -0.4170 C.2    52  PHE52       0.2264
     85  O         -4.6860   38.5510   -1.5930 O.2    52  PHE52      -0.2867
     86  CB        -5.8190   39.0160    1.5780 C.3    52  PHE52       0.0534
     87  CG        -5.8030   40.4200    1.0250 C.ar   52  PHE52      -0.0203
     88  CD1       -4.6810   41.2210    1.1760 C.ar   52  PHE52      -0.0042
     89  CD2       -6.9080   40.9400    0.3820 C.ar   52  PHE52      -0.0042
     90  CE1       -4.6440   42.5160    0.6880 C.ar   52  PHE52      -0.0003
     91  CE2       -6.8790   42.2320   -0.1210 C.ar   52  PHE52      -0.0003
     92  CZ        -5.7610   43.0280    0.0390 C.ar   52  PHE52      -0.0000
     93  N          3.3500   58.9210    4.6070 N.3   177  THR177     -0.1204
     94  CA         2.8110   57.6380    4.1800 C.3   177  THR177      0.1979
     95  C          3.2760   57.2290    2.7870 C.2   177  THR177      0.2460
     96  O          3.6510   56.0750    2.5460 O.2   177  THR177     -0.2732
     97  CB         1.2730   57.5890    4.2810 C.3   177  THR177      0.1783
     98  OG1        0.7100   58.9020    4.4070 O.3   177  THR177     -0.2211
     99  CG2        0.8170   56.7780    5.4850 C.3   177  THR177      0.0376
    100  N          3.2570   58.1330    1.8160 N.am  178  PRO178     -0.2717
    101  CA         3.6410   57.8350    0.4450 C.3   178  PRO178      0.1535
    102  C          5.0880   57.4290    0.2350 C.2   178  PRO178      0.2598
    103  O          5.9710   57.9560    0.9090 O.2   178  PRO178     -0.2715
    104  CB         3.3370   59.1190   -0.3260 C.3   178  PRO178      0.0310
    105  CG         2.3900   59.8870    0.5500 C.3   178  PRO178      0.0237
    106  CD         2.7840   59.5340    1.9660 C.3   178  PRO178      0.0939
    107  N          5.3480   56.5310   -0.7270 N.am  179  LYS179     -0.1978
    108  CA         6.7550   56.1620   -1.0010 C.3   179  LYS179      0.1596
    109  C          7.4800   57.3390   -1.6350 C.2   179  LYS179      0.2287
    110  O          6.8420   58.1240   -2.3230 O.2   179  LYS179     -0.2864
    111  CB         6.7880   54.9610   -1.9610 C.3   179  LYS179      0.0298
    112  CG         6.1810   53.6790   -1.3860 C.3   179  LYS179      0.0038
    113  CD         7.0690   53.0520   -0.3440 C.3   179  LYS179      0.0206
    114  CE         6.5980   51.7370    0.2430 C.3   179  LYS179      0.1093
    115  NZ         5.4730   51.8810    1.2270 N.3   179  LYS179     -0.1314
    116  N         10.4690   55.3070   -6.4150 N.3   184  ILE184     -0.1245
    117  CA         9.5890   54.7400   -7.4450 C.3   184  ILE184      0.1561
    118  C         10.1880   55.0480   -8.8180 C.2   184  ILE184      0.2260
    119  O         10.0640   54.2590   -9.7580 O.2   184  ILE184     -0.2867
    120  CB         8.1920   55.3720   -7.2960 C.3   184  ILE184      0.0252
    121  CG1        7.6130   54.9530   -5.9200 C.3   184  ILE184      0.0019
    122  CG2        7.2670   54.9760   -8.4260 C.3   184  ILE184      0.0019
    123  CD1        7.3760   53.4910   -5.6880 C.3   184  ILE184      0.0001
    124  N         -0.6540   49.6170  -10.9180 N.3   200  ASP200     -0.1225
    125  CA        -0.5620   49.6710   -9.4410 C.3   200  ASP200      0.1805
    126  C         -2.0090   49.5570   -8.9470 C.2   200  ASP200      0.2598
    127  O         -2.7720   50.4870   -9.1690 O.2   200  ASP200     -0.2718
    128  CB         0.1600   50.9240   -8.9630 C.3   200  ASP200      0.1424
    129  CG         0.2490   51.0370   -7.4390 C.2   200  ASP200      0.3668
    130  OD1        1.0500   51.8440   -6.9380 O.co2 200  ASP200     -0.2456
    131  OD2       -0.4400   50.2580   -6.7560 O.co2 200  ASP200     -0.2456
    132  N         -2.3600   48.4650   -8.2740 N.am  201  CYS201     -0.1956
    133  CA        -3.7320   48.2740   -7.7770 C.3   201  CYS201      0.1843
    134  C         -4.0140   48.7300   -6.3460 C.2   201  CYS201      0.2625
    135  O         -5.0920   48.4370   -5.8000 O.2   201  CYS201     -0.2714
    136  CB        -4.1600   46.8130   -7.9700 C.3   201  CYS201      0.0997
    137  SG        -3.1580   45.6020   -7.1250 S.3   201  CYS201     -0.0797
    138  N         -3.1250   49.4590   -5.7060 N.am  202  PHE202     -0.1960
    139  CA        -3.3010   50.1050   -4.4090 C.3   202  PHE202      0.1771
    140  C         -2.6430   51.4710   -4.5090 C.2   202  PHE202      0.2619
    141  O         -1.6310   51.7830   -3.8640 O.2   202  PHE202     -0.2715
    142  CB        -2.6590   49.3560   -3.2380 C.3   202  PHE202      0.0574
    143  CG        -3.1070   47.9400   -3.0880 C.ar  202  PHE202     -0.0200
    144  CD1       -2.3340   46.8860   -3.4900 C.ar  202  PHE202     -0.0042
    145  CD2       -4.3640   47.6530   -2.5260 C.ar  202  PHE202     -0.0042
    146  CE1       -2.7510   45.5870   -3.3380 C.ar  202  PHE202     -0.0003
    147  CE2       -4.7950   46.3500   -2.3880 C.ar  202  PHE202     -0.0003
    148  CZ        -3.9900   45.3030   -2.7910 C.ar  202  PHE202     -0.0000
    149  N         -3.1290   52.3420   -5.3970 N.am  203  MET203     -0.1963
    150  CA        -2.4980   53.5970   -5.7130 C.3   203  MET203      0.1736
    151  C         -2.2020   54.5440   -4.5630 C.2   203  MET203      0.2617
    152  O         -1.1810   55.2220   -4.6480 O.2   203  MET203     -0.2715
    153  CB        -3.2850   54.3870   -6.7770 C.3   203  MET203      0.0427
    154  CG        -3.0470   53.8870   -8.2010 C.3   203  MET203      0.0599
    155  SD        -1.4050   54.3530   -8.7860 S.3   203  MET203     -0.1393
    156  CE        -1.4990   53.8090  -10.4940 C.3   203  MET203      0.0692
    157  N         -3.0580   54.6180   -3.5410 N.am  204  GLY204     -0.1940
    158  CA        -2.7740   55.5020   -2.3970 C.3   204  GLY204      0.2014
    159  C         -2.7680   56.9490   -2.8390 C.2   204  GLY204      0.2639
    160  O         -3.7180   57.3850   -3.5030 O.2   204  GLY204     -0.2714
    161  N         -1.6730   57.6680   -2.6340 N.am  205  SER205     -0.1949
    162  CA        -1.5070   59.0380   -3.0400 C.3   205  SER205      0.1924
    163  C         -1.2390   59.1580   -4.5420 C.2   205  SER205      0.2314
    164  O         -1.1550   60.2850   -5.0370 O.2   205  SER205     -0.2863
    165  CB        -0.4000   59.7540   -2.2470 C.3   205  SER205      0.2116
    166  OG         0.8630   59.2350   -2.6830 O.3   205  SER205     -0.2180
    167  N          1.4860   57.8890   -6.2210 N.3   207  THR207     -0.1203
    168  CA         2.9050   57.9870   -6.5570 C.3   207  THR207      0.1994
    169  C          3.2800   57.2230   -7.8240 C.2   207  THR207      0.2618
    170  O          3.9750   57.7990   -8.6770 O.2   207  THR207     -0.2717
    171  CB         3.7710   57.5080   -5.3630 C.3   207  THR207      0.1784
    172  OG1        3.3150   58.1990   -4.1820 O.3   207  THR207     -0.2211
    173  CG2        5.2200   57.8740   -5.6530 C.3   207  THR207      0.0376
    174  N          2.8560   56.0030   -8.0050 N.am  208  THR208     -0.1952
    175  CA         3.1940   55.2190   -9.1900 C.3   208  THR208      0.1897
    176  C          2.6930   55.8990  -10.4620 C.2   208  THR208      0.2313
    177  O          3.4420   56.0300  -11.4280 O.2   208  THR208     -0.2863
    178  CB         2.6400   53.7880   -9.1270 C.3   208  THR208      0.1794
    179  OG1        3.1600   53.1490   -7.9420 O.3   208  THR208     -0.2208
    180  CG2        3.0170   52.9540  -10.3470 C.3   208  THR208      0.0378
    181  N         -7.7370   52.7250   -6.4530 N.3   223  ASP223     -0.1225
    182  CA        -7.6740   52.7480   -4.9950 C.3   223  ASP223      0.1805
    183  C         -9.1480   52.6980   -4.5530 C.2   223  ASP223      0.2598
    184  O         -9.9930   53.3050   -5.2310 O.2   223  ASP223     -0.2718
    185  CB        -7.0260   53.9870   -4.3860 C.3   223  ASP223      0.1424
    186  CG        -6.6790   53.7610   -2.9230 C.2   223  ASP223      0.3668
    187  OD1       -7.5420   53.8750   -2.0190 O.co2 223  ASP223     -0.2456
    188  OD2       -5.4910   53.4300   -2.6610 O.co2 223  ASP223     -0.2456
    189  N         -9.4500   52.0170   -3.4550 N.am  224  MET224     -0.1965
    190  CA       -10.8300   51.9690   -2.9740 C.3   224  MET224      0.1736
    191  C        -11.2790   53.2910   -2.3670 C.2   224  MET224      0.2616
    192  O        -12.4830   53.5160   -2.1850 O.2   224  MET224     -0.2715
    193  CB       -10.9970   50.8750   -1.9050 C.3   224  MET224      0.0427
    194  CG       -10.1240   51.0980   -0.6750 C.3   224  MET224      0.0599
    195  SD       -10.3240   49.8610    0.6240 S.3   224  MET224     -0.1393
    196  CE       -11.8410   50.4360    1.4120 C.3   224  MET224      0.0692
    197  N        -10.3530   54.1580   -2.0120 N.am  225  ASN225     -0.1972
    198  CA       -10.6330   55.4140   -1.3440 C.3   225  ASN225      0.1688
    199  C        -10.9140   56.5430   -2.3070 C.2   225  ASN225      0.2292
    200  O        -10.0540   57.0710   -3.0060 O.2   225  ASN225     -0.2864
    201  CB        -9.4610   55.7560   -0.4100 C.3   225  ASN225      0.1181
    202  CG        -9.7060   56.9010    0.5450 C.2   225  ASN225      0.2629
    203  OD1       -9.9990   58.0290    0.1490 O.2   225  ASN225     -0.2716
    204  ND2       -9.5560   56.6410    1.8490 N.am  225  ASN225     -0.0877
    205  N         -8.7080   59.7450   -1.8890 N.3   228  TYR228     -0.1241
    206  CA        -7.3640   59.5480   -2.4470 C.3   228  TYR228      0.1605
    207  C         -7.3780   59.5960   -3.9740 C.2   228  TYR228      0.2264
    208  O         -6.4940   60.1710   -4.6090 O.2   228  TYR228     -0.2867
    209  CB        -6.7850   58.2070   -2.0110 C.3   228  TYR228      0.0534
    210  CG        -6.5090   58.0310   -0.5350 C.ar  228  TYR228     -0.0201
    211  CD1       -6.5580   59.0900    0.3650 C.ar  228  TYR228     -0.0009
    212  CD2       -6.1630   56.7830   -0.0510 C.ar  228  TYR228     -0.0009
    213  CE1       -6.2990   58.8970    1.7120 C.ar  228  TYR228      0.0417
    214  CE2       -5.8920   56.5780    1.2890 C.ar  228  TYR228      0.0417
    215  CZ        -5.9630   57.6420    2.1620 C.ar  228  TYR228      0.1957
    216  OH        -5.6790   57.4260    3.4910 O.3   228  TYR228     -0.2866
@<TRIPOS>BOND
     1     8     7    1
     2     7     6    1
     3   177   176    2
     4   124   125    1
     5   156   155    1
     6   176   175    1
     7   180   178    1
     8     6     5    1
     9   119   118    2
    10    26    25    2
    11   125   128    1
    12   125   126    1
    13   175   178    1
    14   175   174    1
    15   127   126    2
    16   178   179    1
    17   128   129    1
    18   126   132   am
    19   118   117    1
    20   155   154    1
    21     5     2    1
    22   170   169    2
    23    25    24    1
    24   122   120    1
    25   132   133    1
    26    20    19    2
    27   154   153    1
    28   174   169   am
    29   136   133    1
    30   136   137    1
    31   169   168    1
    32   133   134    1
    33   117   120    1
    34   117   116    1
    35   129   130   ar
    36   129   131   ar
    37    24    23    1
    38    24    27    1
    39     2     1    1
    40     2     3    1
    41   120   121    1
    42    12    11    2
    43    19    23   am
    44    19    18    1
    45   153   150    1
    46   168   167    1
    47   168   171    1
    48   181   182    1
    49   134   135    2
    50   134   138   am
    51    27    28    1
    52    18    21    1
    53    18    17    1
    54     3     4    2
    55     3     9   am
    56    11    17   am
    57    11    10    1
    58   121   123    1
    59     9    10    1
    60   150   149    1
    61   150   151    1
    62   138   139    1
    63   173   171    1
    64    21    22    1
    65    29    28   ar
    66    29    31   ar
    67   149   140   am
    68   171   172    1
    69   184   183    2
    70    28    30   ar
    71    10    13    1
    72   164   163    2
    73    16    14   am
    74   182   183    1
    75   182   185    1
    76    13    14    1
    77   152   151    2
    78   208   207    2
    79   151   157   am
    80   183   189   am
    81   163   162    1
    82   140   139    1
    83   140   141    2
    84    31    33   ar
    85   139   142    1
    86   185   186    1
    87    14    15    2
    88   207   206    1
    89    30    32   ar
    90    34    35    1
    91   157   158    1
    92   160   159    2
    93   144   146   ar
    94   144   143   ar
    95   189   190    1
    96   146   148   ar
    97   142   143    1
    98    33    32   ar
    99   143   145   ar
   100   162   161    1
   101   162   165    1
   102   200   199    2
   103   190   191    1
   104   190   193    1
   105   186   188   ar
   106   186   187   ar
   107   159   161   am
   108   159   158    1
   109   148   147   ar
   110   166   165    1
   111   145   147   ar
   112   206   209    1
   113   206   205    1
   114   191   192    2
   115   191   197   am
   116   110   109    2
   117   199   198    1
   118    35    38    1
   119    35    36    1
   120    38    39    1
   121   197   198    1
   122   209   210    1
   123   111   112    1
   124   111   108    1
   125   193   194    1
   126   109   108    1
   127    36    37    2
   128    36    42   am
   129    85    84    2
   130   112   113    1
   131   198   201    1
   132    42    48    1
   133    42    43    1
   134    48    47    1
   135    46    47    1
   136    46    43    1
   137   108   107    1
   138    39    40   ar
   139    39    41   ar
   140   107   102   am
   141   194   195    1
   142    43    44    1
   143   210   212   ar
   144   210   211   ar
   145    84    83    1
   146   201   202    1
   147   113   114    1
   148   104   101    1
   149   104   105    1
   150    91    92   ar
   151    91    89   ar
   152   212   214   ar
   153    92    90   ar
   154   203   202    2
   155   102   101    1
   156   102   103    2
   157   114   115    1
   158   211   213   ar
   159    89    87   ar
   160   101   100    1
   161   202   204   am
   162   105   106    1
   163    83    82    1
   164    83    86    1
   165   195   196    1
   166    90    88   ar
   167    55    49    1
   168    55    54    1
   169    44    49   am
   170    44    45    2
   171    87    88   ar
   172    87    86    1
   173   214   215   ar
   174    49    50    1
   175   213   215   ar
   176   100   106    1
   177   100    95   am
   178    54    53    1
   179   215   216    1
   180    67    66    1
   181    64    66   ar
   182    64    62   ar
   183    96    95    2
   184    52    51    2
   185    95    94    1
   186    50    53    1
   187    50    51    1
   188    66    65   ar
   189    62    61   ar
   190    51    56   am
   191    72    73    1
   192    72    69    1
   193    78    80   ar
   194    78    75   ar
   195    73    75   ar
   196    73    74   ar
   197    80    81   ar
   198    75    77   ar
   199    94    97    1
   200    94    93    1
   201    74    76   ar
   202    81    79   ar
   203    77    76   ar
   204    77    79   ar
   205    97    98    1
   206    97    99    1
   207    65    63   ar
   208    56    57    1
   209    61    63   ar
   210    61    60    1
   211    71    70    2
   212    57    60    1
   213    57    58    1
   214    69    70    1
   215    69    68    1
   216    58    59    2
