@<TRIPOS>MOLECULE
tmp/1g63F01.pdb
 131 125 0 0 0
SMALL
GASTEIGER

@<TRIPOS>ATOM
      1  N         60.8520  -10.3710   23.6440 N.3    10  THR10      -0.1203
      2  CA        59.7980   -9.9070   22.7590 C.3    10  THR10       0.1994
      3  C         58.7240  -10.9690   22.5410 C.2    10  THR10       0.2618
      4  O         58.8880  -12.1200   22.9620 O.2    10  THR10      -0.2717
      5  CB        60.3750   -9.4580   21.4070 C.3    10  THR10       0.1784
      6  OG1       60.9530  -10.5810   20.7340 O.3    10  THR10      -0.2211
      7  CG2       61.4520   -8.3960   21.6240 C.3    10  THR10       0.0376
      8  N         57.6310  -10.5700   21.8870 N.am   11  ALA11      -0.1965
      9  CA        56.4850  -11.4440   21.6330 C.3    11  ALA11       0.1728
     10  C         56.7010  -12.6320   20.6960 C.2    11  ALA11       0.2617
     11  O         56.0130  -12.7780   19.6790 O.2    11  ALA11      -0.2715
     12  CB        55.3030  -10.6140   21.1430 C.3    11  ALA11       0.0334
     13  N         57.6600  -13.4790   21.0460 N.am   12  SER12      -0.1936
     14  CA        57.9430  -14.6800   20.2890 C.3    12  SER12       0.2055
     15  C         57.3270  -15.7800   21.1360 C.2    12  SER12       0.2642
     16  O         57.3090  -15.6810   22.3650 O.2    12  SER12      -0.2714
     17  CB        59.4500  -14.9030   20.1690 C.3    12  SER12       0.2130
     18  OG        59.7490  -16.2770   19.9600 O.3    12  SER12      -0.2179
     19  N         56.8200  -16.8220   20.4870 N.am   13  ILE13      -0.1977
     20  CA        56.2070  -17.9310   21.2060 C.3    13  ILE13       0.1596
     21  C         57.1470  -18.5020   22.2820 C.2    13  ILE13       0.2287
     22  O         56.7010  -18.9340   23.3520 O.2    13  ILE13      -0.2864
     23  CB        55.7870  -19.0660   20.2290 C.3    13  ILE13       0.0276
     24  CG1       55.1130  -20.1990   21.0030 C.3    13  ILE13       0.0022
     25  CG2       57.0060  -19.5920   19.4620 C.3    13  ILE13       0.0022
     26  CD1       53.8820  -19.7700   21.7670 C.3    13  ILE13       0.0001
     27  N         58.4770   -6.6590   26.0470 N.3    37  SER37      -0.1203
     28  CA        57.8110   -5.8020   25.0800 C.3    37  SER37       0.2005
     29  C         56.3340   -5.8930   25.4630 C.2    37  SER37       0.2461
     30  O         55.8920   -6.9200   25.9660 O.2    37  SER37      -0.2732
     31  CB        58.0030   -6.3280   23.6570 C.3    37  SER37       0.2103
     32  OG        57.2250   -7.5010   23.4360 O.3    37  SER37      -0.2182
     33  N         55.5570   -4.8170   25.2440 N.am   38  PRO38      -0.2717
     34  CA        54.1320   -4.8360   25.5870 C.3    38  PRO38       0.1535
     35  C         53.4000   -6.0920   25.1020 C.2    38  PRO38       0.2599
     36  O         52.6430   -6.7080   25.8470 O.2    38  PRO38      -0.2715
     37  CB        53.6070   -3.5650   24.9200 C.3    38  PRO38       0.0310
     38  CG        54.7660   -2.6350   25.0500 C.3    38  PRO38       0.0237
     39  CD        55.9430   -3.5090   24.6800 C.3    38  PRO38       0.0939
     40  N         53.6390   -6.4740   23.8540 N.am   39  SER39      -0.1950
     41  CA        52.9830   -7.6420   23.2810 C.3    39  SER39       0.1924
     42  C         53.3470   -8.9720   23.9120 C.2    39  SER39       0.2314
     43  O         52.5430   -9.8980   23.8980 O.2    39  SER39      -0.2863
     44  CB        53.2620   -7.7190   21.7810 C.3    39  SER39       0.2116
     45  OG        52.7300   -6.5970   21.1160 O.3    39  SER39      -0.2180
     46  N         51.5650  -13.4680   26.3140 N.3    43  PHE43      -0.1241
     47  CA        52.0060  -14.8560   26.2910 C.3    43  PHE43       0.1605
     48  C         52.2780  -15.4000   27.6780 C.2    43  PHE43       0.2264
     49  O         52.1050  -16.5880   27.9280 O.2    43  PHE43      -0.2867
     50  CB        53.2810  -15.0060   25.4500 C.3    43  PHE43       0.0534
     51  CG        53.0900  -14.7140   23.9930 C.ar   43  PHE43      -0.0203
     52  CD1       52.7390  -13.4390   23.5600 C.ar   43  PHE43      -0.0042
     53  CD2       53.2870  -15.7090   23.0490 C.ar   43  PHE43      -0.0042
     54  CE1       52.5920  -13.1590   22.2130 C.ar   43  PHE43      -0.0003
     55  CE2       53.1410  -15.4390   21.6980 C.ar   43  PHE43      -0.0003
     56  CZ        52.7920  -14.1550   21.2790 C.ar   43  PHE43      -0.0000
     57  N         62.0350  -10.9330   18.0660 N.3    83  SER83      -0.1202
     58  CA        61.0280  -11.0280   17.0220 C.3    83  SER83       0.2020
     59  C         61.4530  -10.2730   15.7730 C.2    83  SER83       0.2619
     60  O         62.3030   -9.3830   15.8260 O.2    83  SER83      -0.2717
     61  CB        59.6980  -10.4570   17.5220 C.3    83  SER83       0.2103
     62  OG        59.8220   -9.0780   17.8430 O.3    83  SER83      -0.2182
     63  N         60.8550  -10.6260   14.6440 N.am   84  ALA84      -0.1965
     64  CA        61.1720   -9.9540   13.3940 C.3    84  ALA84       0.1728
     65  C         60.8450   -8.4910   13.5770 C.2    84  ALA84       0.2616
     66  O         61.6210   -7.6250   13.1890 O.2    84  ALA84      -0.2715
     67  CB        60.3460  -10.5390   12.2470 C.3    84  ALA84       0.0334
     68  N         59.6940   -8.2230   14.1900 N.am   85  ASN85      -0.1958
     69  CA        59.2350   -6.8610   14.4280 C.3    85  ASN85       0.1819
     70  C         60.2420   -5.9870   15.1650 C.2    85  ASN85       0.2621
     71  O         60.5610   -4.8810   14.7050 O.2    85  ASN85      -0.2715
     72  CB        57.9130   -6.8770   15.2050 C.3    85  ASN85       0.1195
     73  CG        57.4130   -5.4750   15.5420 C.2    85  ASN85       0.2630
     74  OD1       57.2790   -5.1170   16.7160 O.2    85  ASN85      -0.2716
     75  ND2       57.1420   -4.6720   14.5090 N.am   85  ASN85      -0.0877
     76  N         60.7420   -6.4690   16.3020 N.am   86  THR86      -0.1951
     77  CA        61.6980   -5.6870   17.0810 C.3    86  THR86       0.1897
     78  C         63.0310   -5.5320   16.3520 C.2    86  THR86       0.2313
     79  O         63.6540   -4.4600   16.3920 O.2    86  THR86      -0.2863
     80  CB        61.9180   -6.3060   18.4880 C.3    86  THR86       0.1794
     81  OG1       60.7540   -6.0630   19.2890 O.3    86  THR86      -0.2208
     82  CG2       63.1460   -5.6820   19.1830 C.3    86  THR86       0.0378
     83  N         62.5920   -2.8610   13.9310 N.3    89  LYS89      -0.1245
     84  CA        62.4400   -1.5590   14.5650 C.3    89  LYS89       0.1561
     85  C         63.8200   -1.0320   14.9640 C.2    89  LYS89       0.2260
     86  O         64.1690    0.1310   14.7050 O.2    89  LYS89      -0.2867
     87  CB        61.5580   -1.6600   15.8140 C.3    89  LYS89       0.0271
     88  CG        60.0640   -1.6520   15.5600 C.3    89  LYS89       0.0035
     89  CD        59.3330   -1.6980   16.8940 C.3    89  LYS89       0.0206
     90  CE        57.8500   -1.4090   16.7710 C.3    89  LYS89       0.1093
     91  NZ        57.2380   -1.4190   18.1280 N.3    89  LYS89      -0.1314
     92  N         58.6580    1.9590   22.5440 N.3    97  ASN97      -0.1240
     93  CA        58.3580    1.3190   23.8220 C.3    97  ASN97       0.1653
     94  C         59.6820    1.2710   24.5880 C.2    97  ASN97       0.2266
     95  O         60.7420    1.5280   24.0060 O.2    97  ASN97      -0.2867
     96  CB        57.7280   -0.0770   23.6520 C.3    97  ASN97       0.1155
     97  CG        58.5770   -1.0350   22.8260 C.2    97  ASN97       0.2627
     98  OD1       59.7980   -1.0720   22.9510 O.2    97  ASN97      -0.2716
     99  ND2       57.9190   -1.8450   22.0000 N.am   97  ASN97      -0.0877
    100  N         64.2280  -15.2750   16.5250 N.3   115  ASN115     -0.1225
    101  CA        63.3680  -16.4390   16.6900 C.3   115  ASN115      0.1785
    102  C         62.0460  -16.1470   16.0110 C.2   115  ASN115      0.2597
    103  O         61.3480  -15.1920   16.3750 O.2   115  ASN115     -0.2718
    104  CB        63.1170  -16.7820   18.1550 C.3   115  ASN115      0.1169
    105  CG        62.3400  -18.0860   18.3140 C.2   115  ASN115      0.2627
    106  OD1       61.1640  -18.0880   18.6710 O.2   115  ASN115     -0.2716
    107  ND2       62.9970  -19.2030   18.0230 N.am  115  ASN115     -0.0877
    108  N         61.7160  -16.9790   15.0240 N.am  116  MET116     -0.1965
    109  CA        60.4910  -16.8300   14.2500 C.3   116  MET116      0.1736
    110  C         60.3600  -18.0400   13.3380 C.2   116  MET116      0.2616
    111  O         61.2910  -18.8380   13.2120 O.2   116  MET116     -0.2715
    112  CB        60.5750  -15.5610   13.3970 C.3   116  MET116      0.0427
    113  CG        61.7440  -15.5800   12.4210 C.3   116  MET116      0.0599
    114  SD        62.0830  -14.0320   11.6110 S.3   116  MET116     -0.1393
    115  CE        63.0480  -13.1820   12.8420 C.3   116  MET116      0.0692
    116  N         59.2030  -18.1750   12.7010 N.am  117  ASN117     -0.1972
    117  CA        58.9820  -19.2780   11.7870 C.3   117  ASN117      0.1688
    118  C         59.9000  -19.0510   10.5930 C.2   117  ASN117      0.2292
    119  O         60.1950  -17.9080   10.2330 O.2   117  ASN117     -0.2864
    120  CB        57.5230  -19.3020   11.3380 C.3   117  ASN117      0.1181
    121  CG        57.2280  -20.4370   10.3860 C.2   117  ASN117      0.2629
    122  OD1       57.5250  -20.3600    9.1900 O.2   117  ASN117     -0.2716
    123  ND2       56.6520  -21.5120   10.9160 N.am  117  ASN117     -0.0877
    124  N         59.0300  -16.4070    7.8860 N.3   120  MET120     -0.1245
    125  CA        59.2020  -14.9970    8.2420 C.3   120  MET120      0.1570
    126  C         60.6680  -14.6270    8.0740 C.2   120  MET120      0.2261
    127  O         61.0060  -13.5060    7.6860 O.2   120  MET120     -0.2867
    128  CB        58.7880  -14.7490    9.6920 C.3   120  MET120      0.0387
    129  CG        57.3160  -14.9690    9.9870 C.3   120  MET120      0.0595
    130  SD        56.9830  -14.7910   11.7530 S.3   120  MET120     -0.1393
    131  CE        57.1390  -12.9520   11.9230 C.3   120  MET120      0.0692
@<TRIPOS>BOND
     1   127   126    2
     2   124   125    1
     3   126   125    1
     4   125   128    1
     5   122   121    2
     6   128   129    1
     7   129   130    1
     8   119   118    2
     9   121   123   am
    10   121   120    1
    11   118   117    1
    12   120   117    1
    13   114   113    1
    14   114   115    1
    15   130   131    1
    16   117   116    1
    17    67    64    1
    18   113   112    1
    19   116   110   am
    20    66    65    2
    21   111   110    2
    22   110   109    1
    23    64    65    1
    24    64    63    1
    25   112   109    1
    26    65    68   am
    27    83    84    1
    28    68    69    1
    29   109   108    1
    30    69    70    1
    31    69    72    1
    32    75    73   am
    33    84    85    1
    34    84    87    1
    35    63    59   am
    36    86    85    2
    37    71    70    2
    38   108   102   am
    39    70    76   am
    40    72    73    1
    41    73    74    2
    42    88    87    1
    43    88    89    1
    44    59    60    2
    45    59    58    1
    46   102   103    2
    47   102   101    1
    48    76    77    1
    49    78    79    2
    50    78    77    1
    51   100   101    1
    52   101   104    1
    53    90    89    1
    54    90    91    1
    55    58    61    1
    56    58    57    1
    57    77    80    1
    58    61    62    1
    59   107   105   am
    60   104   105    1
    61   105   106    2
    62    80    82    1
    63    80    81    1
    64    25    23    1
    65    11    10    2
    66    18    17    1
    67    17    14    1
    68    23    24    1
    69    23    20    1
    70    14    13    1
    71    14    15    1
    72    19    15   am
    73    19    20    1
    74    10    13   am
    75    10     9    1
    76     6     5    1
    77    24    26    1
    78    45    44    1
    79    15    16    2
    80    12     9    1
    81    20    21    1
    82    56    55   ar
    83    56    54   ar
    84     5     7    1
    85     5     2    1
    86     9     8    1
    87    55    53   ar
    88    44    41    1
    89     8     3   am
    90    99    97   am
    91    54    52   ar
    92    21    22    2
    93     3     2    1
    94     3     4    2
    95    92    93    1
    96     2     1    1
    97    97    98    2
    98    97    96    1
    99    53    51   ar
   100    41    40    1
   101    41    42    1
   102    32    31    1
   103    52    51   ar
   104    96    93    1
   105    31    28    1
   106    93    94    1
   107    40    35   am
   108    43    42    2
   109    51    50    1
   110    95    94    2
   111    39    38    1
   112    39    33    1
   113    37    38    1
   114    37    34    1
   115    28    29    1
   116    28    27    1
   117    35    34    1
   118    35    36    2
   119    33    29   am
   120    33    34    1
   121    50    47    1
   122    29    30    2
   123    47    46    1
   124    47    48    1
   125    48    49    2
