@<TRIPOS>MOLECULE
tmp/1g63F00.pdb
 78 77 0 0 0
SMALL
GASTEIGER

@<TRIPOS>ATOM
      1  N         55.9810    4.3390   34.2890 N.3    63  PRO63      -0.2102
      2  CA        56.0870    4.9620   32.9640 C.3    63  PRO63       0.1504
      3  C         57.2770    5.8960   32.7670 C.2    63  PRO63       0.2576
      4  O         57.5840    6.2660   31.6300 O.2    63  PRO63      -0.2718
      5  CB        54.7630    5.7160   32.8250 C.3    63  PRO63       0.0282
      6  CG        53.8340    4.9470   33.7050 C.3    63  PRO63       0.0208
      7  CD        54.6910    4.6780   34.9110 C.3    63  PRO63       0.0893
      8  N         57.9370    6.2830   33.8580 N.am   64  LEU64      -0.1966
      9  CA        59.0760    7.1960   33.7620 C.3    64  LEU64       0.1728
     10  C         60.4250    6.5600   34.0820 C.2    64  LEU64       0.2616
     11  O         61.3150    7.2190   34.6270 O.2    64  LEU64      -0.2715
     12  CB        58.8660    8.4250   34.6670 C.3    64  LEU64       0.0311
     13  CG        57.7230    9.4010   34.3410 C.3    64  LEU64       0.0022
     14  CD1       57.7520    9.7510   32.8570 C.3    64  LEU64       0.0001
     15  CD2       56.3800    8.7820   34.6990 C.3    64  LEU64       0.0001
     16  N         60.5730    5.2850   33.7360 N.am   65  LEU65      -0.1963
     17  CA        61.8120    4.5490   33.9830 C.3    65  LEU65       0.1728
     18  C         62.9380    5.1780   33.1600 C.2    65  LEU65       0.2616
     19  O         62.7450    5.5120   31.9890 O.2    65  LEU65      -0.2715
     20  CB        61.6120    3.0880   33.5820 C.3    65  LEU65       0.0311
     21  CG        61.9420    1.9640   34.5680 C.3    65  LEU65       0.0022
     22  CD1       61.8370    2.4420   36.0020 C.3    65  LEU65       0.0001
     23  CD2       60.9840    0.7960   34.3070 C.3    65  LEU65       0.0001
     24  N         64.1110    5.3400   33.7680 N.am   66  ASN66      -0.1958
     25  CA        65.2600    5.9460   33.0870 C.3    66  ASN66       0.1819
     26  C         66.0210    4.9350   32.2250 C.2    66  ASN66       0.2621
     27  O         66.8560    4.1790   32.7290 O.2    66  ASN66      -0.2715
     28  CB        66.2180    6.5430   34.1210 C.3    66  ASN66       0.1195
     29  CG        67.2780    7.4330   33.4930 C.2    66  ASN66       0.2630
     30  OD1       67.8440    7.1100   32.4440 O.2    66  ASN66      -0.2716
     31  ND2       67.5570    8.5610   34.1400 N.am   66  ASN66      -0.0877
     32  N         65.7500    4.9380   30.9240 N.am   67  HIS67      -0.1973
     33  CA        66.4050    4.0070   30.0120 C.3    67  HIS67       0.1656
     34  C         67.9220    4.1740   29.9370 C.2    67  HIS67       0.2291
     35  O         68.6450    3.2070   29.6870 O.2    67  HIS67      -0.2864
     36  CB        65.7970    4.1380   28.6180 C.3    67  HIS67       0.0771
     37  CG        65.8620    5.5230   28.0620 C.ar   67  HIS67       0.0820
     38  ND1       66.8500    5.9280   27.1920 N.ar   67  HIS67      -0.2267
     39  CD2       65.0860    6.6100   28.2890 C.ar   67  HIS67       0.1154
     40  CE1       66.6800    7.2080   26.9070 C.ar   67  HIS67       0.1986
     41  NE2       65.6170    7.6450   27.5600 N.ar   67  HIS67      -0.2212
     42  N         61.9780    3.4860   18.3330 N.3    95  CYS95      -0.1221
     43  CA        61.9390    3.1660   19.7440 C.3    95  CYS95       0.1808
     44  C         60.6550    3.6700   20.3960 C.2    95  CYS95       0.2601
     45  O         60.6650    4.6250   21.1750 O.2    95  CYS95      -0.2717
     46  CB        63.1770    3.7430   20.4350 C.3    95  CYS95       0.0970
     47  SG        63.6620    5.3440   19.8050 S.3    95  CYS95      -0.0800
     48  N         59.5470    2.9990   20.0850 N.am   96  ASP96      -0.1959
     49  CA        58.2430    3.3980   20.6140 C.3    96  ASP96       0.1840
     50  C         57.7780    2.7210   21.9040 C.2    96  ASP96       0.2622
     51  O         56.6330    2.8780   22.2980 O.2    96  ASP96      -0.2715
     52  CB        57.1710    3.2550   19.5230 C.3    96  ASP96       0.1450
     53  CG        57.1130    1.8620   18.9320 C.2    96  ASP96       0.3671
     54  OD1       57.7840    0.9560   19.4530 O.co2  96  ASP96      -0.2456
     55  OD2       56.3770    1.6720   17.9500 O.co2  96  ASP96      -0.2456
     56  N         58.6580    1.9590   22.5440 N.am   97  ASN97      -0.1958
     57  CA        58.3580    1.3190   23.8220 C.3    97  ASN97       0.1819
     58  C         59.6820    1.2710   24.5880 C.2    97  ASN97       0.2621
     59  O         60.7420    1.5280   24.0060 O.2    97  ASN97      -0.2715
     60  CB        57.7280   -0.0770   23.6520 C.3    97  ASN97       0.1195
     61  CG        58.5770   -1.0350   22.8260 C.2    97  ASN97       0.2630
     62  OD1       59.7980   -1.0720   22.9510 O.2    97  ASN97      -0.2716
     63  ND2       57.9190   -1.8450   22.0000 N.am   97  ASN97      -0.0877
     64  N         59.6380    0.9730   25.8840 N.am   98  LEU98      -0.1977
     65  CA        60.8610    0.9580   26.6850 C.3    98  LEU98       0.1596
     66  C         61.9530    0.0140   26.1690 C.2    98  LEU98       0.2287
     67  O         63.1160    0.4120   26.0340 O.2    98  LEU98      -0.2864
     68  CB        60.5390    0.6190   28.1450 C.3    98  LEU98       0.0297
     69  CG        61.7290    0.6140   29.1170 C.3    98  LEU98       0.0022
     70  CD1       62.4080    1.9720   29.1230 C.3    98  LEU98       0.0001
     71  CD2       61.2440    0.2610   30.5230 C.3    98  LEU98       0.0001
     72  N         63.5170    1.3330   23.1970 N.3   101  THR101     -0.1218
     73  CA        64.2480    2.5730   23.4750 C.3   101  THR101      0.1862
     74  C         65.5810    2.2100   24.1260 C.2   101  THR101      0.2287
     75  O         66.6000    2.8600   23.8960 O.2   101  THR101     -0.2866
     76  CB        63.4600    3.4910   24.4210 C.3   101  THR101      0.1770
     77  OG1       62.3140    4.0040   23.7320 O.3   101  THR101     -0.2211
     78  CG2       64.3240    4.6480   24.8890 C.3   101  THR101      0.0375
@<TRIPOS>BOND
     1    55    53   ar
     2    42    43    1
     3    53    54   ar
     4    53    52    1
     5    52    49    1
     6    43    44    1
     7    43    46    1
     8    47    46    1
     9    48    44   am
    10    48    49    1
    11    44    45    2
    12    49    50    1
    13    50    51    2
    14    50    56   am
    15    63    61   am
    16    56    57    1
    17    61    62    2
    18    61    60    1
    19    72    73    1
    20    73    74    1
    21    73    76    1
    22    60    57    1
    23    77    76    1
    24    57    58    1
    25    75    74    2
    26    59    58    2
    27    76    78    1
    28    58    64   am
    29    64    65    1
    30    67    66    2
    31    66    65    1
    32    65    68    1
    33    40    38   ar
    34    40    41   ar
    35    38    37   ar
    36    41    39   ar
    37    37    39   ar
    38    37    36    1
    39    68    69    1
    40    36    33    1
    41    69    70    1
    42    69    71    1
    43    35    34    2
    44    34    33    1
    45    33    32    1
    46    32    26   am
    47     4     3    2
    48    19    18    2
    49    26    27    2
    50    26    25    1
    51    30    29    2
    52     3     2    1
    53     3     8   am
    54     5     2    1
    55     5     6    1
    56    14    13    1
    57     2     1    1
    58    25    24    1
    59    25    28    1
    60    18    24   am
    61    18    17    1
    62    29    28    1
    63    29    31   am
    64    20    17    1
    65    20    21    1
    66     6     7    1
    67    16    17    1
    68    16    10   am
    69     9     8    1
    70     9    10    1
    71     9    12    1
    72    10    11    2
    73     1     7    1
    74    23    21    1
    75    13    12    1
    76    13    15    1
    77    21    22    1
