@<TRIPOS>MOLECULE
tmp/1g64A00.pdb
 143 143 0 0 0
SMALL
GASTEIGER

@<TRIPOS>ATOM
      1  N         -0.0030   34.6860   34.2120 N.3    10  ASN10      -0.1240
      2  CA        -1.1880   33.9790   34.6690 C.3    10  ASN10       0.1653
      3  C         -0.9780   32.7760   35.5610 C.2    10  ASN10       0.2266
      4  O         -1.9220   32.2950   36.1910 O.2    10  ASN10      -0.2867
      5  CB        -2.0530   33.5210   33.4890 C.3    10  ASN10       0.1155
      6  CG        -2.8880   34.6260   32.9260 C.2    10  ASN10       0.2627
      7  OD1       -3.8970   34.3410   32.2850 O.2    10  ASN10      -0.2716
      8  ND2       -2.5050   35.8630   33.2130 N.am   10  ASN10      -0.0877
      9  N         -5.6620   43.7560   47.7100 N.3    38  ILE38      -0.1231
     10  CA        -6.8640   43.0110   47.5760 C.3    38  ILE38       0.1692
     11  C         -7.2640   42.2970   48.8380 C.2    38  ILE38       0.2592
     12  O         -6.4220   41.6580   49.4310 O.2    38  ILE38      -0.2718
     13  CB        -6.7270   42.0610   46.4310 C.3    38  ILE38       0.0266
     14  CG1       -6.6160   42.8910   45.1650 C.3    38  ILE38       0.0019
     15  CG2       -7.9660   41.1860   46.3980 C.3    38  ILE38       0.0020
     16  CD1       -6.6050   41.9910   43.9320 C.3    38  ILE38       0.0001
     17  N         -8.5510   42.3880   49.2020 N.am   39  LYS39      -0.1966
     18  CA        -9.0840   41.7300   50.3930 C.3    39  LYS39       0.1728
     19  C         -9.5960   40.2560   50.2910 C.2    39  LYS39       0.2617
     20  O        -10.7710   39.9850   49.9860 O.2    39  LYS39      -0.2715
     21  CB       -10.0380   42.5940   51.2190 C.3    39  LYS39       0.0311
     22  CG       -10.2240   41.9610   52.6030 C.3    39  LYS39       0.0038
     23  CD       -11.0200   42.8260   53.5610 C.3    39  LYS39       0.0206
     24  CE       -11.7010   42.0400   54.6550 C.3    39  LYS39       0.1093
     25  NZ       -12.0970   42.8970   55.8000 N.3    39  LYS39      -0.1314
     26  N         -8.7400   39.2870   50.6440 N.am   40  GLY40      -0.1940
     27  CA        -9.1280   37.9010   50.6370 C.3    40  GLY40       0.2014
     28  C        -10.3610   37.6370   51.5010 C.2    40  GLY40       0.2640
     29  O        -10.7610   38.3620   52.3980 O.2    40  GLY40      -0.2714
     30  N        -11.0300   36.5720   51.2260 N.am   41  THR41      -0.1936
     31  CA       -12.1960   36.2840   52.0160 C.3    41  THR41       0.2028
     32  C        -11.7080   35.6230   53.2780 C.2    41  THR41       0.2642
     33  O        -12.0990   35.9310   54.4040 O.2    41  THR41      -0.2714
     34  CB       -12.9780   35.2220   51.2180 C.3    41  THR41       0.1808
     35  OG1      -13.3550   35.7070   49.9200 O.3    41  THR41      -0.2208
     36  CG2      -14.1190   34.6130   52.0440 C.3    41  THR41       0.0379
     37  N        -10.7940   34.7070   52.9850 N.am   42  TRP42      -0.1973
     38  CA       -10.1180   33.8590   53.9140 C.3    42  TRP42       0.1640
     39  C         -9.0830   34.5130   54.7760 C.2    42  TRP42       0.2290
     40  O         -8.6710   35.6860   54.6330 O.2    42  TRP42      -0.2864
     41  CB        -9.5530   32.6370   53.2190 C.3    42  TRP42       0.0576
     42  CG       -10.6870   31.8210   52.7350 C.ar   42  TRP42       0.0006
     43  CD1      -11.7170   31.3680   53.4820 C.ar   42  TRP42       0.0946
     44  CD2      -10.9330   31.4250   51.3910 C.ar   42  TRP42       0.0152
     45  NE1      -12.5920   30.6650   52.7030 N.ar   42  TRP42      -0.2442
     46  CE2      -12.1290   30.6880   51.4080 C.ar   42  TRP42       0.0810
     47  CE3      -10.2440   31.6110   50.1960 C.ar   42  TRP42       0.0012
     48  CZ2      -12.6500   30.1410   50.2310 C.ar   42  TRP42       0.0191
     49  CZ3      -10.7590   31.0620   49.0500 C.ar   42  TRP42       0.0001
     50  CH2      -11.9480   30.3380   49.0660 C.ar   42  TRP42       0.0015
     51  N        -14.6150   45.8520   48.3840 N.3    64  PHE64      -0.1227
     52  CA       -14.2720   46.5010   47.1500 C.3    64  PHE64       0.1736
     53  C        -15.0930   45.8910   46.0430 C.2    64  PHE64       0.2596
     54  O        -15.0360   44.6710   45.8210 O.2    64  PHE64      -0.2718
     55  CB       -12.8200   46.2150   46.9120 C.3    64  PHE64       0.0547
     56  CG       -12.2850   47.0560   45.8210 C.ar   64  PHE64      -0.0202
     57  CD1      -11.7070   48.2780   46.1520 C.ar   64  PHE64      -0.0042
     58  CD2      -12.2920   46.5990   44.5000 C.ar   64  PHE64      -0.0042
     59  CE1      -11.1420   49.0880   45.1710 C.ar   64  PHE64      -0.0003
     60  CE2      -11.7140   47.3780   43.5060 C.ar   64  PHE64      -0.0003
     61  CZ       -11.1640   48.6140   43.8580 C.ar   64  PHE64      -0.0000
     62  N        -15.8540   46.7530   45.3510 N.am   65  THR65      -0.1939
     63  CA       -16.7740   46.2980   44.3010 C.3    65  THR65       0.2028
     64  C        -16.2300   45.8200   42.9330 C.2    65  THR65       0.2642
     65  O        -16.7530   44.8470   42.3950 O.2    65  THR65      -0.2714
     66  CB       -17.9220   47.3090   44.0880 C.3    65  THR65       0.1808
     67  OG1      -17.4080   48.4140   43.3520 O.3    65  THR65      -0.2208
     68  CG2      -18.5050   47.7990   45.4250 C.3    65  THR65       0.0379
     69  N        -15.2310   46.5310   42.3800 N.am   66  TRP66      -0.1973
     70  CA       -14.6520   46.2930   41.0730 C.3    66  TRP66       0.1640
     71  C        -15.6950   46.8120   40.1080 C.2    66  TRP66       0.2290
     72  O        -15.7470   46.3950   38.9680 O.2    66  TRP66      -0.2864
     73  CB       -14.4510   44.7710   40.8270 C.3    66  TRP66       0.0576
     74  CG       -13.4930   44.1690   41.8010 C.ar   66  TRP66       0.0006
     75  CD1      -13.7390   43.5080   42.9790 C.ar   66  TRP66       0.0946
     76  CD2      -12.0930   44.2640   41.6610 C.ar   66  TRP66       0.0152
     77  NE1      -12.5520   43.1830   43.6000 N.ar   66  TRP66      -0.2442
     78  CE2      -11.5250   43.6480   42.7950 C.ar   66  TRP66       0.0810
     79  CE3      -11.2800   44.8470   40.6710 C.ar   66  TRP66       0.0012
     80  CZ2      -10.1450   43.6280   42.9130 C.ar   66  TRP66       0.0191
     81  CZ3       -9.9170   44.7820   40.7590 C.ar   66  TRP66       0.0001
     82  CH2       -9.3750   44.1950   41.9020 C.ar   66  TRP66       0.0015
     83  N         -3.5520   45.6190   39.2330 N.3   104  TYR104     -0.1241
     84  CA        -4.9010   45.9560   38.8800 C.3   104  TYR104      0.1605
     85  C         -5.2760   47.3100   39.3790 C.2   104  TYR104      0.2264
     86  O         -6.2340   47.9490   38.9500 O.2   104  TYR104     -0.2867
     87  CB        -5.8620   44.9650   39.4840 C.3   104  TYR104      0.0534
     88  CG        -5.4120   43.5490   39.2560 C.ar  104  TYR104     -0.0201
     89  CD1       -4.6590   42.9010   40.2340 C.ar  104  TYR104     -0.0009
     90  CD2       -5.7650   42.8340   38.1150 C.ar  104  TYR104     -0.0009
     91  CE1       -4.2290   41.5880   40.0810 C.ar  104  TYR104      0.0417
     92  CE2       -5.3900   41.4990   37.9730 C.ar  104  TYR104      0.0417
     93  CZ        -4.5750   40.8920   38.9300 C.ar  104  TYR104      0.1957
     94  OH        -4.1470   39.6010   38.8170 O.3   104  TYR104     -0.2866
     95  N         -6.8050   49.6500   36.3370 N.3   108  TYR108     -0.1241
     96  CA        -8.1920   50.1050   36.2310 C.3   108  TYR108      0.1605
     97  C         -8.4230   51.5520   36.5870 C.2   108  TYR108      0.2264
     98  O         -9.5600   51.9920   36.8450 O.2   108  TYR108     -0.2867
     99  CB        -9.1470   49.2640   37.0360 C.3   108  TYR108      0.0534
    100  CG        -9.1030   47.8650   36.5600 C.ar  108  TYR108     -0.0201
    101  CD1       -8.9970   47.6300   35.1930 C.ar  108  TYR108     -0.0009
    102  CD2       -9.1870   46.7950   37.4500 C.ar  108  TYR108     -0.0009
    103  CE1       -9.0010   46.3220   34.7130 C.ar  108  TYR108      0.0417
    104  CE2       -9.1720   45.4830   36.9800 C.ar  108  TYR108      0.0417
    105  CZ        -9.1090   45.2500   35.6080 C.ar  108  TYR108      0.1957
    106  OH        -9.1190   43.9650   35.1390 O.3   108  TYR108     -0.2866
    107  N         -1.3720   40.2710   37.8740 N.3   134  ARG134     -0.1245
    108  CA        -1.5950   40.1680   36.4470 C.3   134  ARG134      0.1563
    109  C         -1.6680   41.5480   35.8330 C.2   134  ARG134      0.2260
    110  O         -2.3020   42.4640   36.3580 O.2   134  ARG134     -0.2867
    111  CB        -2.8960   39.4420   36.0810 C.3   134  ARG134      0.0307
    112  CG        -2.7920   37.9370   36.0060 C.3   134  ARG134      0.0489
    113  CD        -4.1480   37.2160   35.9800 C.3   134  ARG134      0.2205
    114  NE        -4.0000   35.7660   36.1530 N.pl3 134  ARG134     -0.0865
    115  CZ        -4.8090   34.8440   35.6250 C.cat 134  ARG134      0.5346
    116  NH1       -5.8550   35.1080   34.8470 N.pl3 134  ARG134      0.1354
    117  NH2       -4.5550   33.5990   35.9050 N.pl3 134  ARG134      0.1354
    118  N         -2.1900   24.0270   35.6970 N.3   155  HIS155     -0.1241
    119  CA        -2.9050   24.4450   36.8890 C.3   155  HIS155      0.1621
    120  C         -3.9980   23.4770   37.3710 C.2   155  HIS155      0.2264
    121  O         -4.9920   23.2560   36.6720 O.2   155  HIS155     -0.2867
    122  CB        -3.3840   25.9020   36.8570 C.3   155  HIS155      0.0745
    123  CG        -3.8790   26.2980   38.2090 C.ar  155  HIS155      0.0817
    124  ND1       -5.0500   25.7770   38.7420 N.ar  155  HIS155     -0.2268
    125  CD2       -3.3220   27.1410   39.1180 C.ar  155  HIS155      0.1154
    126  CE1       -5.1730   26.3300   39.9440 C.ar  155  HIS155      0.1986
    127  NE2       -4.1340   27.1480   40.2050 N.ar  155  HIS155     -0.2212
    128  N         -6.5280   23.4290   39.2150 N.3   157  PHE157     -0.1241
    129  CA        -7.9240   23.7590   39.1070 C.3   157  PHE157      0.1605
    130  C         -8.5140   23.4120   37.7620 C.2   157  PHE157      0.2264
    131  O         -9.7290   23.3130   37.5830 O.2   157  PHE157     -0.2867
    132  CB        -8.0480   25.2640   39.3000 C.3   157  PHE157      0.0534
    133  CG        -9.4880   25.6660   39.2280 C.ar  157  PHE157     -0.0203
    134  CD1      -10.3470   25.4020   40.2900 C.ar  157  PHE157     -0.0042
    135  CD2      -10.0140   26.2720   38.0910 C.ar  157  PHE157     -0.0042
    136  CE1      -11.6800   25.8110   40.2510 C.ar  157  PHE157     -0.0003
    137  CE2      -11.3490   26.6670   38.0170 C.ar  157  PHE157     -0.0003
    138  CZ       -12.1790   26.4540   39.1170 C.ar  157  PHE157     -0.0000
    139  N         -9.7030   24.8110   45.2500 N.3   163  ALA163     -0.1245
    140  CA        -8.8250   25.7460   45.9590 C.3   163  ALA163      0.1562
    141  C         -8.8170   25.2530   47.4140 C.2   163  ALA163      0.2260
    142  O         -9.8670   24.9160   47.9560 O.2   163  ALA163     -0.2867
    143  CB        -9.4870   27.1230   45.9840 C.3   163  ALA163      0.0290
@<TRIPOS>BOND
     1     7     6    2
     2     6     8   am
     3     6     5    1
     4     5     2    1
     5     1     2    1
     6     2     3    1
     7   103   101   ar
     8   103   105   ar
     9   116   115    1
    10   106   105    1
    11   101   100   ar
    12     3     4    2
    13   105   104   ar
    14   115   117    1
    15   115   114    2
    16   118   119    1
    17   109   110    2
    18   109   108    1
    19   113   112    1
    20   113   114    1
    21   112   111    1
    22   111   108    1
    23    96    95    1
    24    96    97    1
    25    96    99    1
    26   108   107    1
    27   100    99    1
    28   100   102   ar
    29    97    98    2
    30   121   120    2
    31   122   119    1
    32   122   123    1
    33   119   120    1
    34   104   102   ar
    35   131   130    2
    36   130   129    1
    37    92    90   ar
    38    92    93   ar
    39   137   135   ar
    40   137   138   ar
    41   135   133   ar
    42    90    88   ar
    43   123   124   ar
    44   123   125   ar
    45   124   126   ar
    46    94    93    1
    47    84    83    1
    48    84    85    1
    49    84    87    1
    50    93    91   ar
    51    86    85    2
    52    72    71    2
    53   129   128    1
    54   129   132    1
    55   138   136   ar
    56   125   127   ar
    57   133   132    1
    58   133   134   ar
    59    88    87    1
    60    88    89   ar
    61   126   127   ar
    62    91    89   ar
    63    71    70    1
    64   136   134   ar
    65    79    81   ar
    66    79    76   ar
    67    81    82   ar
    68    73    70    1
    69    73    74    1
    70    70    69    1
    71    76    74   ar
    72    76    78   ar
    73    74    75   ar
    74    82    80   ar
    75    69    64   am
    76    65    64    2
    77    78    80   ar
    78    78    77   ar
    79    64    63    1
    80    75    77   ar
    81    67    66    1
    82    60    61   ar
    83    60    58   ar
    84    61    59   ar
    85    16    14    1
    86    66    63    1
    87    66    68    1
    88    63    62    1
    89    58    56   ar
    90    14    13    1
    91    59    57   ar
    92   139   140    1
    93    62    53   am
    94    54    53    2
    95    56    57   ar
    96    56    55    1
    97   140   143    1
    98   140   141    1
    99    53    52    1
   100    15    13    1
   101    13    10    1
   102    55    52    1
   103    52    51    1
   104   141   142    2
   105    10     9    1
   106    10    11    1
   107    11    17   am
   108    11    12    2
   109    49    50   ar
   110    49    47   ar
   111    50    48   ar
   112    17    18    1
   113    35    34    1
   114    20    19    2
   115    47    44   ar
   116    48    46   ar
   117    19    18    1
   118    19    26   am
   119    18    21    1
   120    27    26    1
   121    27    28    1
   122    34    31    1
   123    34    36    1
   124    21    22    1
   125    30    28   am
   126    30    31    1
   127    44    46   ar
   128    44    42   ar
   129    46    45   ar
   130    28    29    2
   131    31    32    1
   132    22    23    1
   133    45    43   ar
   134    42    41    1
   135    42    43   ar
   136    37    32   am
   137    37    38    1
   138    41    38    1
   139    32    33    2
   140    23    24    1
   141    38    39    1
   142    40    39    2
   143    24    25    1
