@<TRIPOS>MOLECULE
tmp/1g69B00.pdb
 123 112 0 0 0
SMALL
GASTEIGER

@<TRIPOS>ATOM
      1  N         58.5830   44.3580   21.4440 N.3    22  TYR22      -0.1241
      2  CA        57.8200   43.1570   21.1030 C.3    22  TYR22       0.1605
      3  C         58.1150   41.9870   22.0460 C.2    22  TYR22       0.2264
      4  O         59.0670   41.2390   21.8430 O.2    22  TYR22      -0.2867
      5  CB        58.1710   42.8020   19.6570 C.3    22  TYR22       0.0534
      6  CG        57.3010   41.7880   18.9500 C.ar   22  TYR22      -0.0201
      7  CD1       56.2780   41.1020   19.6110 C.ar   22  TYR22      -0.0009
      8  CD2       57.5260   41.4990   17.6100 C.ar   22  TYR22      -0.0009
      9  CE1       55.5090   40.1520   18.9430 C.ar   22  TYR22       0.0417
     10  CE2       56.7640   40.5620   16.9360 C.ar   22  TYR22       0.0417
     11  CZ        55.7620   39.8890   17.6030 C.ar   22  TYR22       0.1957
     12  OH        55.0170   38.9540   16.9210 O.3    22  TYR22      -0.2866
     13  N         57.7080   38.3770   23.6790 N.3    24  ILE24      -0.1245
     14  CA        57.3190   37.0330   23.2620 C.3    24  ILE24       0.1561
     15  C         57.4150   36.1210   24.4830 C.2    24  ILE24       0.2260
     16  O         58.3950   36.1790   25.2250 O.2    24  ILE24      -0.2867
     17  CB        58.2710   36.5020   22.1620 C.3    24  ILE24       0.0252
     18  CG1       58.2140   37.4220   20.9390 C.3    24  ILE24       0.0019
     19  CG2       57.8950   35.0790   21.7800 C.3    24  ILE24       0.0019
     20  CD1       59.2210   37.0720   19.8670 C.3    24  ILE24       0.0001
     21  N         53.5530   38.2320   21.5650 N.3    50  GLN50      -0.1245
     22  CA        53.4160   37.0040   20.7980 C.3    50  GLN50       0.1566
     23  C         53.3110   35.7950   21.7230 C.2    50  GLN50       0.2260
     24  O         54.1590   35.5790   22.5920 O.2    50  GLN50      -0.2867
     25  CB        54.6110   36.8170   19.8500 C.3    50  GLN50       0.0367
     26  CG        54.5590   35.5120   19.0580 C.3    50  GLN50       0.0905
     27  CD        55.8070   35.2680   18.2330 C.2    50  GLN50       0.2608
     28  OE1       56.3690   34.1730   18.2550 O.2    50  GLN50      -0.2717
     29  NE2       56.2460   36.2850   17.4930 N.am   50  GLN50      -0.0878
     30  N         53.9080   32.2760   22.2650 N.3    52  ARG52      -0.1245
     31  CA        54.7910   31.2520   21.7090 C.3    52  ARG52       0.1563
     32  C         54.9200   30.1840   22.7790 C.2    52  ARG52       0.2260
     33  O         55.6460   30.3490   23.7560 O.2    52  ARG52      -0.2867
     34  CB        56.1580   31.8570   21.3690 C.3    52  ARG52       0.0307
     35  CG        57.1860   30.8600   20.8480 C.3    52  ARG52       0.0489
     36  CD        58.4320   31.5850   20.3630 C.3    52  ARG52       0.2205
     37  NE        59.4910   30.6640   19.9620 N.pl3  52  ARG52      -0.0865
     38  CZ        60.2560   29.9890   20.8130 C.cat  52  ARG52       0.5346
     39  NH1       60.0850   30.1340   22.1200 N.pl3  52  ARG52       0.1354
     40  NH2       61.1890   29.1610   20.3580 N.pl3  52  ARG52       0.1354
     41  N         52.0580   32.4180   17.5190 N.3    85  ASN85      -0.1240
     42  CA        53.2020   31.8250   16.8340 C.3    85  ASN85       0.1653
     43  C         52.8220   30.5180   16.1360 C.2    85  ASN85       0.2266
     44  O         52.2220   29.6310   16.7420 O.2    85  ASN85      -0.2867
     45  CB        54.3330   31.5430   17.8270 C.3    85  ASN85       0.1155
     46  CG        55.5700   30.9780   17.1540 C.2    85  ASN85       0.2627
     47  OD1       56.3060   31.6930   16.4810 O.2    85  ASN85      -0.2716
     48  ND2       55.7930   29.6820   17.3210 N.am   85  ASN85      -0.0877
     49  N         52.6950   34.7550   13.4770 N.3   100  HIS100     -0.1241
     50  CA        54.1060   34.8260   13.1600 C.3   100  HIS100      0.1621
     51  C         54.5750   33.4430   12.7330 C.2   100  HIS100      0.2264
     52  O         54.3500   32.4620   13.4380 O.2   100  HIS100     -0.2867
     53  CB        54.9230   35.2650   14.3700 C.3   100  HIS100      0.0745
     54  CG        56.3780   35.4100   14.0660 C.ar  100  HIS100      0.0817
     55  ND1       56.9200   36.5840   13.5860 N.ar  100  HIS100     -0.2268
     56  CD2       57.3750   34.4950   14.0390 C.ar  100  HIS100      0.1154
     57  CE1       58.1850   36.3810   13.2680 C.ar  100  HIS100      0.1986
     58  NE2       58.4870   35.1230   13.5330 N.ar  100  HIS100     -0.2212
     59  N         57.8090   30.9160   10.7530 N.3   102  GLY102     -0.1225
     60  CA        59.2220   30.7910   10.4530 C.3   102  GLY102      0.1811
     61  C         59.4010   30.2340    9.0540 C.2   102  GLY102      0.2280
     62  O         58.4230   30.0740    8.3220 O.2   102  GLY102     -0.2866
     63  N         59.9270   35.0720    9.9940 N.3   123  ALA123     -0.1245
     64  CA        61.3220   35.0690   10.4320 C.3   123  ALA123      0.1562
     65  C         62.1950   34.9910    9.1790 C.2   123  ALA123      0.2260
     66  O         61.9160   34.2050    8.2740 O.2   123  ALA123     -0.2867
     67  CB        61.5880   33.8680   11.3280 C.3   123  ALA123      0.0290
     68  N         66.4730   35.1920    7.7060 N.3   125  HIS125     -0.1241
     69  CA        67.8710   35.1500    8.1060 C.3   125  HIS125      0.1621
     70  C         68.8430   35.4920    6.9830 C.2   125  HIS125      0.2264
     71  O         70.0550   35.5570    7.1990 O.2   125  HIS125     -0.2867
     72  CB        68.1820   33.7710    8.6910 C.3   125  HIS125      0.0745
     73  CG        67.1180   33.2670    9.6160 C.ar  125  HIS125      0.0817
     74  ND1       65.9760   32.6420    9.1610 N.ar  125  HIS125     -0.2268
     75  CD2       66.9860   33.3540   10.9610 C.ar  125  HIS125      0.1154
     76  CE1       65.1880   32.3670   10.1840 C.ar  125  HIS125      0.1986
     77  NE2       65.7780   32.7890   11.2890 N.ar  125  HIS125     -0.2212
     78  N         55.8380   42.2900    8.4590 N.3   140  TYR140     -0.1241
     79  CA        57.0970   42.5690    9.1380 C.3   140  TYR140      0.1605
     80  C         57.9580   41.3180    9.1070 C.2   140  TYR140      0.2264
     81  O         57.4560   40.2030    8.9260 O.2   140  TYR140     -0.2867
     82  CB        56.8680   43.0120   10.5980 C.3   140  TYR140      0.0534
     83  CG        56.5670   41.8950   11.5870 C.ar  140  TYR140     -0.0201
     84  CD1       57.5890   41.1200   12.1330 C.ar  140  TYR140     -0.0009
     85  CD2       55.2580   41.6260   11.9810 C.ar  140  TYR140     -0.0009
     86  CE1       57.3150   40.0990   13.0490 C.ar  140  TYR140      0.0417
     87  CE2       54.9740   40.6160   12.8930 C.ar  140  TYR140      0.0417
     88  CZ        56.0000   39.8560   13.4210 C.ar  140  TYR140      0.1957
     89  OH        55.6990   38.8370   14.2980 O.3   140  TYR140     -0.2866
     90  N         61.1750   39.2430   11.1660 N.3   142  GLY142     -0.1225
     91  CA        61.9180   39.1490   12.4080 C.3   142  GLY142      0.1811
     92  C         63.3030   38.6690   12.0310 C.2   142  GLY142      0.2280
     93  O         63.4470   37.5830   11.4680 O.2   142  GLY142     -0.2866
     94  N         66.0650   29.7510   22.6740 N.3   152  LYS152     -0.1245
     95  CA        65.6850   28.9340   21.5240 C.3   152  LYS152      0.1561
     96  C         66.9780   28.2130   21.1520 C.2   152  LYS152      0.2260
     97  O         67.9910   28.8560   20.8780 O.2   152  LYS152     -0.2867
     98  CB        65.2120   29.8050   20.3540 C.3   152  LYS152      0.0271
     99  CG        64.8800   29.0130   19.0880 C.3   152  LYS152      0.0035
    100  CD        64.4790   29.9320   17.9410 C.3   152  LYS152      0.0206
    101  CE        64.3640   29.1890   16.6120 C.3   152  LYS152      0.1093
    102  NZ        63.2880   28.1610   16.5980 N.3   152  LYS152     -0.1314
    103  N         62.0360   43.8150   12.9770 N.3   177  VAL177     -0.1245
    104  CA        62.2010   43.6990   14.4180 C.3   177  VAL177      0.1561
    105  C         63.3560   42.7260   14.6240 C.2   177  VAL177      0.2260
    106  O         63.4420   41.6960   13.9460 O.2   177  VAL177     -0.2867
    107  CB        60.9330   43.1620   15.1420 C.3   177  VAL177      0.0252
    108  CG1       60.6200   41.7450   14.6880 C.3   177  VAL177      0.0019
    109  CG2       61.1550   43.2020   16.6560 C.3   177  VAL177      0.0019
    110  N         65.6730   40.0970   16.9580 N.3   179  ILE179     -0.1245
    111  CA        65.4180   39.1170   18.0090 C.3   179  ILE179      0.1561
    112  C         66.6630   38.2810   18.3120 C.2   179  ILE179      0.2260
    113  O         67.4950   38.0380   17.4300 O.2   179  ILE179     -0.2867
    114  CB        64.2550   38.1640   17.6120 C.3   179  ILE179      0.0252
    115  CG1       63.8350   37.3130   18.8120 C.3   179  ILE179      0.0019
    116  CG2       64.6810   37.2580   16.4610 C.3   179  ILE179      0.0019
    117  CD1       62.5290   36.5720   18.5920 C.3   179  ILE179      0.0001
    118  N         62.6020   42.5560   19.9300 N.3   199  SER199     -0.1217
    119  CA        61.7260   41.5530   20.5120 C.3   199  SER199      0.1889
    120  C         62.5790   40.7620   21.4860 C.2   199  SER199      0.2288
    121  O         63.7790   40.5780   21.2670 O.2   199  SER199     -0.2866
    122  CB        61.1460   40.6420   19.4280 C.3   199  SER199      0.2089
    123  OG        62.1500   39.9130   18.7540 O.3   199  SER199     -0.2183
@<TRIPOS>BOND
     1    70    71    2
     2    70    69    1
     3    68    69    1
     4    69    72    1
     5    66    65    2
     6    62    61    2
     7    78    79    1
     8    72    73    1
     9    81    80    2
    10    61    60    1
    11    80    79    1
    12    79    82    1
    13    74    73   ar
    14    74    76   ar
    15    65    64    1
    16    73    75   ar
    17    63    64    1
    18    76    77   ar
    19    64    67    1
    20    60    59    1
    21    82    83    1
    22    75    77   ar
    23    90    91    1
    24    93    92    2
    25    83    85   ar
    26    83    84   ar
    27    85    87   ar
    28    92    91    1
    29    84    86   ar
    30    51    50    1
    31    51    52    2
    32    87    88   ar
    33   103   104    1
    34    86    88   ar
    35    50    49    1
    36    50    53    1
    37    57    58   ar
    38    57    55   ar
    39    88    89    1
    40    58    56   ar
    41    55    54   ar
    42   106   105    2
    43    56    54   ar
    44    54    53    1
    45   104   105    1
    46   104   107    1
    47   108   107    1
    48   107   109    1
    49    43    44    2
    50    43    42    1
    51   116   114    1
    52    47    46    2
    53   102   101    1
    54   101   100    1
    55    42    41    1
    56    42    45    1
    57    12    11    1
    58    10    11   ar
    59    10     8   ar
    60   110   111    1
    61    46    48   am
    62    46    45    1
    63   113   112    2
    64    29    27   am
    65    11     9   ar
    66     8     6   ar
    67   114   111    1
    68   114   115    1
    69   100    99    1
    70   111   112    1
    71    27    28    2
    72    27    26    1
    73   117   115    1
    74   123   122    1
    75     9     7   ar
    76     6     7   ar
    77     6     5    1
    78    26    25    1
    79    99    98    1
    80   122   119    1
    81     5     2    1
    82    25    22    1
    83    20    18    1
    84   118   119    1
    85    37    36    1
    86    37    38    2
    87    98    95    1
    88    40    38    1
    89    36    35    1
    90   119   120    1
    91    22    21    1
    92    22    23    1
    93    38    39    1
    94    35    34    1
    95    97    96    2
    96    18    17    1
    97     2     1    1
    98     2     3    1
    99    96    95    1
   100   121   120    2
   101    34    31    1
   102    95    94    1
   103    31    30    1
   104    31    32    1
   105    23    24    2
   106    19    17    1
   107     4     3    2
   108    17    14    1
   109    32    33    2
   110    14    13    1
   111    14    15    1
   112    15    16    2
