@<TRIPOS>MOLECULE
tmp/1g69B01.pdb
 117 111 0 0 0
SMALL
GASTEIGER

@<TRIPOS>ATOM
      1  N         53.5530   38.2320   21.5650 N.3    50  GLN50      -0.1245
      2  CA        53.4160   37.0040   20.7980 C.3    50  GLN50       0.1566
      3  C         53.3110   35.7950   21.7230 C.2    50  GLN50       0.2260
      4  O         54.1590   35.5790   22.5920 O.2    50  GLN50      -0.2867
      5  CB        54.6110   36.8170   19.8500 C.3    50  GLN50       0.0367
      6  CG        54.5590   35.5120   19.0580 C.3    50  GLN50       0.0905
      7  CD        55.8070   35.2680   18.2330 C.2    50  GLN50       0.2608
      8  OE1       56.3690   34.1730   18.2550 O.2    50  GLN50      -0.2717
      9  NE2       56.2460   36.2850   17.4930 N.am   50  GLN50      -0.0878
     10  N         53.9080   32.2760   22.2650 N.3    52  ARG52      -0.1245
     11  CA        54.7910   31.2520   21.7090 C.3    52  ARG52       0.1563
     12  C         54.9200   30.1840   22.7790 C.2    52  ARG52       0.2260
     13  O         55.6460   30.3490   23.7560 O.2    52  ARG52      -0.2867
     14  CB        56.1580   31.8570   21.3690 C.3    52  ARG52       0.0307
     15  CG        57.1860   30.8600   20.8480 C.3    52  ARG52       0.0489
     16  CD        58.4320   31.5850   20.3630 C.3    52  ARG52       0.2205
     17  NE        59.4910   30.6640   19.9620 N.pl3  52  ARG52      -0.0865
     18  CZ        60.2560   29.9890   20.8130 C.cat  52  ARG52       0.5346
     19  NH1       60.0850   30.1340   22.1200 N.pl3  52  ARG52       0.1354
     20  NH2       61.1890   29.1610   20.3580 N.pl3  52  ARG52       0.1354
     21  N         55.9290   26.4490   22.9740 N.3    54  LYS54      -0.1245
     22  CA        56.5160   25.2510   22.3850 C.3    54  LYS54       0.1561
     23  C         57.6600   24.7000   23.2290 C.2    54  LYS54       0.2260
     24  O         58.2490   25.4090   24.0460 O.2    54  LYS54      -0.2867
     25  CB        57.0100   25.5480   20.9660 C.3    54  LYS54       0.0271
     26  CG        57.9870   26.7080   20.8700 C.3    54  LYS54       0.0035
     27  CD        58.5010   26.8770   19.4480 C.3    54  LYS54       0.0206
     28  CE        57.3700   27.1520   18.4740 C.3    54  LYS54       0.1093
     29  NZ        57.8530   27.1500   17.0660 N.3    54  LYS54      -0.1314
     30  N         52.0580   32.4180   17.5190 N.3    85  ASN85      -0.1225
     31  CA        53.2020   31.8250   16.8340 C.3    85  ASN85       0.1785
     32  C         52.8220   30.5180   16.1360 C.2    85  ASN85       0.2597
     33  O         52.2220   29.6310   16.7420 O.2    85  ASN85      -0.2718
     34  CB        54.3330   31.5430   17.8270 C.3    85  ASN85       0.1169
     35  CG        55.5700   30.9780   17.1540 C.2    85  ASN85       0.2627
     36  OD1       56.3060   31.6930   16.4810 O.2    85  ASN85      -0.2716
     37  ND2       55.7930   29.6820   17.3210 N.am   85  ASN85      -0.0877
     38  N         53.1590   30.4290   14.8520 N.am   86  ASP86      -0.1974
     39  CA        52.9310   29.2390   14.0250 C.3    86  ASP86       0.1709
     40  C         51.5240   28.7200   13.7430 C.2    86  ASP86       0.2293
     41  O         51.1750   28.4720   12.5890 O.2    86  ASP86      -0.2864
     42  CB        53.7400   28.0580   14.5730 C.3    86  ASP86       0.1436
     43  CG        55.2290   28.3200   14.5790 C.2    86  ASP86       0.3671
     44  OD1       55.7150   28.9990   13.6570 O.co2  86  ASP86      -0.2456
     45  OD2       55.9100   27.8300   15.5020 O.co2  86  ASP86      -0.2456
     46  N         52.6950   34.7550   13.4770 N.3   100  HIS100     -0.1226
     47  CA        54.1060   34.8260   13.1600 C.3   100  HIS100      0.1752
     48  C         54.5750   33.4430   12.7330 C.2   100  HIS100      0.2596
     49  O         54.3500   32.4620   13.4380 O.2   100  HIS100     -0.2718
     50  CB        54.9230   35.2650   14.3700 C.3   100  HIS100      0.0759
     51  CG        56.3780   35.4100   14.0660 C.ar  100  HIS100      0.0818
     52  ND1       56.9200   36.5840   13.5860 N.ar  100  HIS100     -0.2268
     53  CD2       57.3750   34.4950   14.0390 C.ar  100  HIS100      0.1154
     54  CE1       58.1850   36.3810   13.2680 C.ar  100  HIS100      0.1986
     55  NE2       58.4870   35.1230   13.5330 N.ar  100  HIS100     -0.2212
     56  N         55.2320   33.3620   11.5830 N.am  101  ILE101     -0.1966
     57  CA        55.7220   32.0770   11.1030 C.3   101  ILE101      0.1727
     58  C         57.2150   32.1050   10.7960 C.2   101  ILE101      0.2617
     59  O         57.8070   33.1690   10.6100 O.2   101  ILE101     -0.2715
     60  CB        54.9680   31.6270    9.8280 C.3   101  ILE101      0.0290
     61  CG1       55.1350   32.6740    8.7230 C.3   101  ILE101      0.0022
     62  CG2       53.4990   31.3960   10.1550 C.3   101  ILE101      0.0023
     63  CD1       54.5210   32.2860    7.3880 C.3   101  ILE101      0.0001
     64  N         57.8090   30.9160   10.7530 N.am  102  GLY102     -0.1940
     65  CA        59.2220   30.7910   10.4530 C.3   102  GLY102      0.2014
     66  C         59.4010   30.2340    9.0540 C.2   102  GLY102      0.2639
     67  O         58.4230   30.0740    8.3220 O.2   102  GLY102     -0.2714
     68  N         60.6420   29.9290    8.6840 N.am  103  GLN103     -0.1963
     69  CA        60.9430   29.3980    7.3570 C.3   103  GLN103      0.1733
     70  C         60.5610   27.9300    7.1840 C.2   103  GLN103      0.2616
     71  O         60.3030   27.4840    6.0690 O.2   103  GLN103     -0.2715
     72  CB        62.4340   29.5690    7.0420 C.3   103  GLN103      0.0408
     73  CG        62.8790   31.0070    6.8100 C.3   103  GLN103      0.0908
     74  CD        62.1670   31.6600    5.6400 C.2   103  GLN103      0.2608
     75  OE1       62.0120   31.0570    4.5800 O.2   103  GLN103     -0.2717
     76  NE2       61.7440   32.9070    5.8220 N.am  103  GLN103     -0.0878
     77  N         60.5290   27.1820    8.2820 N.am  104  GLU104     -0.1963
     78  CA        60.1830   25.7650    8.2230 C.3   104  GLU104      0.1733
     79  C         58.6740   25.5400    8.2940 C.2   104  GLU104      0.2616
     80  O         58.1760   24.4900    7.8880 O.2   104  GLU104     -0.2715
     81  CB        60.8610   25.0010    9.3640 C.3   104  GLU104      0.0429
     82  CG        62.3760   25.1350    9.4070 C.3   104  GLU104      0.1163
     83  CD        62.8300   26.5250    9.8130 C.2   104  GLU104      0.3649
     84  OE1       62.4450   26.9790   10.9130 O.co2 104  GLU104     -0.2457
     85  OE2       63.5710   27.1630    9.0360 O.co2 104  GLU104     -0.2457
     86  N         57.9490   26.5270    8.8120 N.am  105  ASP105     -0.1971
     87  CA        56.5000   26.4180    8.9330 C.3   105  ASP105      0.1709
     88  C         55.8230   26.4900    7.5660 C.2   105  ASP105      0.2293
     89  O         56.4830   26.3880    6.5330 O.2   105  ASP105     -0.2864
     90  CB        55.9640   27.5260    9.8440 C.3   105  ASP105      0.1436
     91  CG        56.5770   27.4860   11.2300 C.2   105  ASP105      0.3671
     92  OD1       56.4820   26.4330   11.8980 O.co2 105  ASP105     -0.2456
     93  OD2       57.1540   28.5080   11.6540 O.co2 105  ASP105     -0.2456
     94  N         59.9270   35.0720    9.9940 N.3   123  ALA123     -0.1245
     95  CA        61.3220   35.0690   10.4320 C.3   123  ALA123      0.1562
     96  C         62.1950   34.9910    9.1790 C.2   123  ALA123      0.2260
     97  O         61.9160   34.2050    8.2740 O.2   123  ALA123     -0.2867
     98  CB        61.5880   33.8680   11.3280 C.3   123  ALA123      0.0290
     99  N         66.4730   35.1920    7.7060 N.3   125  HIS125     -0.1241
    100  CA        67.8710   35.1500    8.1060 C.3   125  HIS125      0.1621
    101  C         68.8430   35.4920    6.9830 C.2   125  HIS125      0.2264
    102  O         70.0550   35.5570    7.1990 O.2   125  HIS125     -0.2867
    103  CB        68.1820   33.7710    8.6910 C.3   125  HIS125      0.0745
    104  CG        67.1180   33.2670    9.6160 C.ar  125  HIS125      0.0817
    105  ND1       65.9760   32.6420    9.1610 N.ar  125  HIS125     -0.2268
    106  CD2       66.9860   33.3540   10.9610 C.ar  125  HIS125      0.1154
    107  CE1       65.1880   32.3670   10.1840 C.ar  125  HIS125      0.1986
    108  NE2       65.7780   32.7890   11.2890 N.ar  125  HIS125     -0.2212
    109  N         66.0650   29.7510   22.6740 N.3   152  LYS152     -0.1245
    110  CA        65.6850   28.9340   21.5240 C.3   152  LYS152      0.1561
    111  C         66.9780   28.2130   21.1520 C.2   152  LYS152      0.2260
    112  O         67.9910   28.8560   20.8780 O.2   152  LYS152     -0.2867
    113  CB        65.2120   29.8050   20.3540 C.3   152  LYS152      0.0271
    114  CG        64.8800   29.0130   19.0880 C.3   152  LYS152      0.0035
    115  CD        64.4790   29.9320   17.9410 C.3   152  LYS152      0.0206
    116  CE        64.3640   29.1890   16.6120 C.3   152  LYS152      0.1093
    117  NZ        63.2880   28.1610   16.5980 N.3   152  LYS152     -0.1314
@<TRIPOS>BOND
     1    75    74    2
     2    74    76   am
     3    74    73    1
     4    71    70    2
     5    89    88    2
     6    73    72    1
     7   101   102    2
     8   101   100    1
     9    72    69    1
    10    70    69    1
    11    70    77   am
    12    69    68    1
    13    63    61    1
    14    88    87    1
    15    99   100    1
    16    80    79    2
    17   100   103    1
    18    78    77    1
    19    78    79    1
    20    78    81    1
    21    97    96    2
    22    79    86   am
    23    67    66    2
    24    68    66   am
    25   103   104    1
    26    61    60    1
    27    86    87    1
    28    87    90    1
    29    85    83   ar
    30    66    65    1
    31   105   104   ar
    32   105   107   ar
    33    96    95    1
    34    81    82    1
    35    82    83    1
    36   104   106   ar
    37    83    84   ar
    38    60    62    1
    39    60    57    1
    40    90    91    1
    41    94    95    1
    42   107   108   ar
    43    95    98    1
    44    65    64    1
    45    59    58    2
    46    64    58   am
    47    58    57    1
    48   106   108   ar
    49    57    56    1
    50    91    93   ar
    51    91    92   ar
    52    56    48   am
    53    41    40    2
    54    48    47    1
    55    48    49    2
    56    47    46    1
    57    47    50    1
    58    54    55   ar
    59    54    52   ar
    60    55    53   ar
    61    52    51   ar
    62    44    43   ar
    63    40    39    1
    64    39    42    1
    65    39    38    1
    66    53    51   ar
    67    51    50    1
    68    42    43    1
    69    43    45   ar
    70    38    32   am
    71    32    33    2
    72    32    31    1
    73    36    35    2
    74   117   116    1
    75   116   115    1
    76    31    30    1
    77    31    34    1
    78    29    28    1
    79    35    37   am
    80    35    34    1
    81     9     7   am
    82   115   114    1
    83     7     8    2
    84     7     6    1
    85    28    27    1
    86     6     5    1
    87   114   113    1
    88    27    26    1
    89     5     2    1
    90    17    16    1
    91    17    18    2
    92   113   110    1
    93    20    18    1
    94    16    15    1
    95     2     1    1
    96     2     3    1
    97    18    19    1
    98    15    14    1
    99    26    25    1
   100   112   111    2
   101    25    22    1
   102   111   110    1
   103    14    11    1
   104   110   109    1
   105    11    10    1
   106    11    12    1
   107     3     4    2
   108    22    21    1
   109    22    23    1
   110    12    13    2
   111    23    24    2
