@<TRIPOS>MOLECULE
tmp/1g69B02.pdb
 127 120 0 0 0
SMALL
GASTEIGER

@<TRIPOS>ATOM
      1  N         57.7080   38.3770   23.6790 N.3    24  ILE24      -0.1245
      2  CA        57.3190   37.0330   23.2620 C.3    24  ILE24       0.1561
      3  C         57.4150   36.1210   24.4830 C.2    24  ILE24       0.2260
      4  O         58.3950   36.1790   25.2250 O.2    24  ILE24      -0.2867
      5  CB        58.2710   36.5020   22.1620 C.3    24  ILE24       0.0252
      6  CG1       58.2140   37.4220   20.9390 C.3    24  ILE24       0.0019
      7  CG2       57.8950   35.0790   21.7800 C.3    24  ILE24       0.0019
      8  CD1       59.2210   37.0720   19.8670 C.3    24  ILE24       0.0001
      9  N         53.9080   32.2760   22.2650 N.3    52  ARG52      -0.1245
     10  CA        54.7910   31.2520   21.7090 C.3    52  ARG52       0.1563
     11  C         54.9200   30.1840   22.7790 C.2    52  ARG52       0.2260
     12  O         55.6460   30.3490   23.7560 O.2    52  ARG52      -0.2867
     13  CB        56.1580   31.8570   21.3690 C.3    52  ARG52       0.0307
     14  CG        57.1860   30.8600   20.8480 C.3    52  ARG52       0.0489
     15  CD        58.4320   31.5850   20.3630 C.3    52  ARG52       0.2205
     16  NE        59.4910   30.6640   19.9620 N.pl3  52  ARG52      -0.0865
     17  CZ        60.2560   29.9890   20.8130 C.cat  52  ARG52       0.5346
     18  NH1       60.0850   30.1340   22.1200 N.pl3  52  ARG52       0.1354
     19  NH2       61.1890   29.1610   20.3580 N.pl3  52  ARG52       0.1354
     20  N         66.4730   35.1920    7.7060 N.3   125  HIS125     -0.1241
     21  CA        67.8710   35.1500    8.1060 C.3   125  HIS125      0.1621
     22  C         68.8430   35.4920    6.9830 C.2   125  HIS125      0.2264
     23  O         70.0550   35.5570    7.1990 O.2   125  HIS125     -0.2867
     24  CB        68.1820   33.7710    8.6910 C.3   125  HIS125      0.0745
     25  CG        67.1180   33.2670    9.6160 C.ar  125  HIS125      0.0817
     26  ND1       65.9760   32.6420    9.1610 N.ar  125  HIS125     -0.2268
     27  CD2       66.9860   33.3540   10.9610 C.ar  125  HIS125      0.1154
     28  CE1       65.1880   32.3670   10.1840 C.ar  125  HIS125      0.1986
     29  NE2       65.7780   32.7890   11.2890 N.ar  125  HIS125     -0.2212
     30  N         67.2740   37.6710   13.0810 N.3   144  GLY144     -0.1210
     31  CA        68.1190   37.2430   14.1790 C.3   144  GLY144      0.1940
     32  C         68.6700   35.8480   13.9670 C.2   144  GLY144      0.2453
     33  O         68.4870   35.2740   12.8940 O.2   144  GLY144     -0.2732
     34  N         69.3530   35.2750   14.9700 N.am  145  PRO145     -0.2728
     35  CA        69.6150   35.8970   16.2720 C.3   145  PRO145      0.1401
     36  C         70.6150   37.0430   16.1520 C.2   145  PRO145      0.2269
     37  O         71.6570   36.9050   15.5030 O.2   145  PRO145     -0.2865
     38  CB        70.1800   34.7440   17.1060 C.3   145  PRO145      0.0296
     39  CG        69.6870   33.5140   16.4120 C.3   145  PRO145      0.0237
     40  CD        69.8140   33.8780   14.9670 C.3   145  PRO145      0.0939
     41  N         71.8170   33.4040   22.1860 N.3   149  THR149     -0.1218
     42  CA        70.6460   33.1070   23.0010 C.3   149  THR149      0.1862
     43  C         70.5060   31.6180   23.2740 C.2   149  THR149      0.2287
     44  O         70.7910   30.7870   22.4110 O.2   149  THR149     -0.2866
     45  CB        69.3520   33.5780   22.3260 C.3   149  THR149      0.1770
     46  OG1       68.2340   33.2030   23.1420 O.3   149  THR149     -0.2211
     47  CG2       69.2020   32.9360   20.9550 C.3   149  THR149      0.0375
     48  N         67.5300   30.6270   24.8780 N.3   151  THR151     -0.1203
     49  CA        66.0850   30.4640   24.9910 C.3   151  THR151      0.1994
     50  C         65.5360   29.5730   23.8810 C.2   151  THR151      0.2617
     51  O         64.6400   28.7590   24.1130 O.2   151  THR151     -0.2717
     52  CB        65.3870   31.8290   24.9640 C.3   151  THR151      0.1784
     53  OG1       65.9320   32.6490   26.0060 O.3   151  THR151     -0.2211
     54  CG2       63.8840   31.6670   25.1800 C.3   151  THR151      0.0376
     55  N         66.0650   29.7510   22.6740 N.am  152  LYS152     -0.1979
     56  CA        65.6850   28.9340   21.5240 C.3   152  LYS152      0.1596
     57  C         66.9780   28.2130   21.1520 C.2   152  LYS152      0.2287
     58  O         67.9910   28.8560   20.8780 O.2   152  LYS152     -0.2864
     59  CB        65.2120   29.8050   20.3540 C.3   152  LYS152      0.0298
     60  CG        64.8800   29.0130   19.0880 C.3   152  LYS152      0.0038
     61  CD        64.4790   29.9320   17.9410 C.3   152  LYS152      0.0206
     62  CE        64.3640   29.1890   16.6120 C.3   152  LYS152      0.1093
     63  NZ        63.2880   28.1610   16.5980 N.3   152  LYS152     -0.1314
     64  N         68.7090   27.5510   16.7300 N.3   155  THR155     -0.1218
     65  CA        68.8060   28.8540   16.0830 C.3   155  THR155      0.1862
     66  C         69.8040   28.8870   14.9320 C.2   155  THR155      0.2287
     67  O         70.7170   28.0620   14.8540 O.2   155  THR155     -0.2866
     68  CB        69.2140   29.9550   17.0880 C.3   155  THR155      0.1770
     69  OG1       70.4400   29.5870   17.7330 O.3   155  THR155     -0.2211
     70  CG2       68.1300   30.1540   18.1320 C.3   155  THR155      0.0375
     71  N         65.6730   40.0970   16.9580 N.3   179  ILE179     -0.1231
     72  CA        65.4180   39.1170   18.0090 C.3   179  ILE179      0.1692
     73  C         66.6630   38.2810   18.3120 C.2   179  ILE179      0.2593
     74  O         67.4950   38.0380   17.4300 O.2   179  ILE179     -0.2718
     75  CB        64.2550   38.1640   17.6120 C.3   179  ILE179      0.0266
     76  CG1       63.8350   37.3130   18.8120 C.3   179  ILE179      0.0019
     77  CG2       64.6810   37.2580   16.4610 C.3   179  ILE179      0.0020
     78  CD1       62.5290   36.5720   18.5920 C.3   179  ILE179      0.0001
     79  N         66.7870   37.8630   19.5680 N.am  180  GLY180     -0.1942
     80  CA        67.9150   37.0390   19.9670 C.3   180  GLY180      0.2014
     81  C         68.8690   37.6780   20.9590 C.2   180  GLY180      0.2639
     82  O         69.6740   38.5320   20.5930 O.2   180  GLY180     -0.2714
     83  N         68.7660   37.2700   22.2200 N.am  181  GLY181     -0.1939
     84  CA        69.6390   37.7850   23.2610 C.3   181  GLY181      0.2014
     85  C         69.6200   39.2840   23.4670 C.2   181  GLY181      0.2638
     86  O         70.5980   39.8640   23.9490 O.2   181  GLY181     -0.2714
     87  N         68.5100   39.9240   23.1220 N.am  182  ILE182     -0.1977
     88  CA        68.4210   41.3640   23.2850 C.3   182  ILE182      0.1596
     89  C         68.0670   41.7580   24.7120 C.2   182  ILE182      0.2287
     90  O         67.1240   41.2300   25.3110 O.2   182  ILE182     -0.2864
     91  CB        67.4010   41.9660   22.2980 C.3   182  ILE182      0.0276
     92  CG1       67.8600   41.6760   20.8630 C.3   182  ILE182      0.0022
     93  CG2       67.2760   43.4720   22.5250 C.3   182  ILE182      0.0022
     94  CD1       66.8920   42.1250   19.7860 C.3   182  ILE182      0.0001
     95  N         62.6020   42.5560   19.9300 N.3   199  SER199     -0.1202
     96  CA        61.7260   41.5530   20.5120 C.3   199  SER199      0.2020
     97  C         62.5790   40.7620   21.4860 C.2   199  SER199      0.2619
     98  O         63.7790   40.5780   21.2670 O.2   199  SER199     -0.2717
     99  CB        61.1460   40.6420   19.4280 C.3   199  SER199      0.2103
    100  OG        62.1500   39.9130   18.7540 O.3   199  SER199     -0.2182
    101  N         61.9640   40.2980   22.5650 N.am  200  MET200     -0.1965
    102  CA        62.7090   39.5680   23.5740 C.3   200  MET200      0.1736
    103  C         61.8330   38.6390   24.3910 C.2   200  MET200      0.2616
    104  O         60.6200   38.8140   24.4700 O.2   200  MET200     -0.2715
    105  CB        63.3880   40.5560   24.5280 C.3   200  MET200      0.0427
    106  CG        62.4460   41.2580   25.5210 C.3   200  MET200      0.0599
    107  SD        61.1070   42.2290   24.7870 S.3   200  MET200     -0.1393
    108  CE        62.0540   43.5700   24.0220 C.3   200  MET200      0.0692
    109  N         62.4730   37.6480   25.0010 N.am  201  ILE201     -0.1963
    110  CA        61.7750   36.7190   25.8650 C.3   201  ILE201      0.1727
    111  C         62.3500   36.8560   27.2740 C.2   201  ILE201      0.2617
    112  O         61.7820   37.5600   28.1070 O.2   201  ILE201     -0.2715
    113  CB        61.9070   35.2510   25.3870 C.3   201  ILE201      0.0290
    114  CG1       61.3010   35.1090   23.9880 C.3   201  ILE201      0.0022
    115  CG2       61.2020   34.3100   26.3830 C.3   201  ILE201      0.0023
    116  CD1       61.2820   33.6850   23.4430 C.3   201  ILE201      0.0001
    117  N         63.4990   36.2300   27.5210 N.am  202  SER202     -0.1936
    118  CA        64.1060   36.2350   28.8510 C.3   202  SER202      0.2055
    119  C         64.3810   37.5780   29.5210 C.2   202  SER202      0.2642
    120  O         64.2120   37.6970   30.7320 O.2   202  SER202     -0.2714
    121  CB        65.3960   35.4050   28.8490 C.3   202  SER202      0.2130
    122  OG        66.3780   35.9770   28.0020 O.3   202  SER202     -0.2179
    123  N         64.7970   38.5870   28.7610 N.am  203  ALA203     -0.1977
    124  CA        65.0890   39.8890   29.3580 C.3   203  ALA203      0.1597
    125  C         63.9160   40.4240   30.1810 C.2   203  ALA203      0.2287
    126  O         64.1110   41.1820   31.1300 O.2   203  ALA203     -0.2864
    127  CB        65.4740   40.8950   28.2780 C.3   203  ALA203      0.0319
@<TRIPOS>BOND
     1    22    23    2
     2    22    21    1
     3    20    21    1
     4    21    24    1
     5    24    25    1
     6    26    25   ar
     7    26    28   ar
     8    25    27   ar
     9    28    29   ar
    10    27    29   ar
    11    33    32    2
    12    30    31    1
    13    32    31    1
    14    32    34   am
    15    67    66    2
    16    66    65    1
    17    40    34    1
    18    40    39    1
    19    34    35    1
    20    37    36    2
    21    65    64    1
    22    65    68    1
    23    36    35    1
    24    35    38    1
    25    39    38    1
    26    77    75    1
    27    63    62    1
    28    62    61    1
    29    71    72    1
    30    68    69    1
    31    68    70    1
    32    74    73    2
    33    75    72    1
    34    75    76    1
    35    61    60    1
    36    72    73    1
    37    73    79   am
    38    78    76    1
    39   100    99    1
    40    60    59    1
    41    99    96    1
    42    79    80    1
    43    94    92    1
    44     8     6    1
    45    95    96    1
    46    16    15    1
    47    16    17    2
    48    80    81    1
    49    59    56    1
    50    19    17    1
    51    15    14    1
    52    96    97    1
    53    82    81    2
    54    17    18    1
    55    14    13    1
    56    92    91    1
    57    58    57    2
    58     6     5    1
    59    47    45    1
    60    81    83   am
    61    57    56    1
    62    98    97    2
    63    13    10    1
    64    97   101   am
    65    56    55    1
    66    10     9    1
    67    10    11    1
    68     7     5    1
    69     5     2    1
    70    41    42    1
    71    83    84    1
    72    91    93    1
    73    91    88    1
    74    45    42    1
    75    45    46    1
    76    44    43    2
    77   101   102    1
    78    55    50   am
    79    11    12    2
    80    42    43    1
    81    87    88    1
    82    87    85   am
    83    84    85    1
    84     2     1    1
    85     2     3    1
    86    88    89    1
    87   116   114    1
    88    85    86    2
    89   102   103    1
    90   102   105    1
    91    50    51    2
    92    50    49    1
    93   114   113    1
    94   108   107    1
    95   103   104    2
    96   103   109   am
    97     3     4    2
    98   105   106    1
    99    89    90    2
   100   107   106    1
   101    48    49    1
   102    52    49    1
   103    52    54    1
   104    52    53    1
   105   109   110    1
   106   113   110    1
   107   113   115    1
   108   110   111    1
   109   111   117   am
   110   111   112    2
   111   117   118    1
   112   122   121    1
   113   127   124    1
   114   123   124    1
   115   123   119   am
   116   121   118    1
   117   118   119    1
   118   124   125    1
   119   119   120    2
   120   125   126    2
