@<TRIPOS>MOLECULE
tmp/1g6cA00.pdb
 109 99 0 0 0
SMALL
GASTEIGER

@<TRIPOS>ATOM
      1  N         17.6450   32.9020   20.2280 N.3    20  TYR20      -0.1241
      2  CA        18.4260   34.1240   20.0570 C.3    20  TYR20       0.1605
      3  C         18.1430   35.1440   21.1680 C.2    20  TYR20       0.2264
      4  O         17.1690   35.8970   21.0990 O.2    20  TYR20      -0.2867
      5  CB        18.0720   34.6900   18.6710 C.3    20  TYR20       0.0534
      6  CG        18.9720   35.7560   18.0860 C.ar   20  TYR20      -0.0201
      7  CD1       19.9990   36.3480   18.8260 C.ar   20  TYR20      -0.0009
      8  CD2       18.7640   36.2050   16.7780 C.ar   20  TYR20      -0.0009
      9  CE1       20.7890   37.3650   18.2720 C.ar   20  TYR20       0.0417
     10  CE2       19.5450   37.2170   16.2210 C.ar   20  TYR20       0.0417
     11  CZ        20.5530   37.7940   16.9740 C.ar   20  TYR20       0.1957
     12  OH        21.3100   38.8120   16.4350 O.3    20  TYR20      -0.2866
     13  N         18.6950   38.5030   23.2950 N.3    22  ILE22      -0.1245
     14  CA        19.1130   39.8850   23.0690 C.3    22  ILE22       0.1561
     15  C         19.0530   40.6140   24.4130 C.2    22  ILE22       0.2260
     16  O         18.0960   40.4500   25.1620 O.2    22  ILE22      -0.2867
     17  CB        18.1490   40.5820   22.0710 C.3    22  ILE22       0.0252
     18  CG1       18.1410   39.8300   20.7360 C.3    22  ILE22       0.0019
     19  CG2       18.5510   42.0350   21.8870 C.3    22  ILE22       0.0019
     20  CD1       17.1480   40.3780   19.7160 C.3    22  ILE22       0.0001
     21  N         22.8310   38.7940   21.1340 N.3    48  GLN48      -0.1245
     22  CA        22.9610   40.1230   20.5610 C.3    48  GLN48       0.1566
     23  C         23.1340   41.1850   21.6450 C.2    48  GLN48       0.2260
     24  O         22.2970   41.3220   22.5480 O.2    48  GLN48      -0.2867
     25  CB        21.7310   40.4690   19.7100 C.3    48  GLN48       0.0367
     26  CG        21.7900   41.8670   19.0840 C.3    48  GLN48       0.0905
     27  CD        20.4900   42.2830   18.4170 C.2    48  GLN48       0.2608
     28  OE1       19.9280   43.3280   18.7390 O.2    48  GLN48      -0.2717
     29  NE2       20.0120   41.4730   17.4760 N.am   48  GLN48      -0.0878
     30  N         22.7080   44.5830   22.7370 N.3    50  ARG50      -0.1245
     31  CA        21.8520   45.7130   22.3820 C.3    50  ARG50       0.1563
     32  C         21.7920   46.6680   23.5660 C.2    50  ARG50       0.2260
     33  O         21.0050   46.4790   24.4910 O.2    50  ARG50      -0.2867
     34  CB        20.4510   45.2030   22.0160 C.3    50  ARG50       0.0307
     35  CG        19.4790   46.2810   21.5620 C.3    50  ARG50       0.0489
     36  CD        18.1530   45.6810   21.1080 C.3    50  ARG50       0.2205
     37  NE        17.1770   46.7120   20.7520 N.pl3  50  ARG50      -0.0865
     38  CZ        16.4340   47.3800   21.6280 C.cat  50  ARG50       0.5346
     39  NH1       16.5410   47.1300   22.9260 N.pl3  50  ARG50       0.1354
     40  NH2       15.5770   48.2980   21.2020 N.pl3  50  ARG50       0.1354
     41  N         24.3340   45.0390   17.9890 N.3    83  ASN83      -0.1240
     42  CA        23.2190   45.7480   17.3750 C.3    83  ASN83       0.1653
     43  C         23.6070   47.1810   17.0190 C.2    83  ASN83       0.2266
     44  O         24.3050   47.8480   17.7840 O.2    83  ASN83      -0.2867
     45  CB        22.0080   45.7760   18.3140 C.3    83  ASN83       0.1155
     46  CG        20.7840   46.3950   17.6620 C.2    83  ASN83       0.2627
     47  OD1       20.3180   45.9210   16.6260 O.2    83  ASN83      -0.2716
     48  ND2       20.2670   47.4590   18.2560 N.am   83  ASN83      -0.0877
     49  N         23.6980   43.4450   13.6640 N.3    98  HIS98      -0.1241
     50  CA        22.2810   43.4930   13.3300 C.3    98  HIS98       0.1621
     51  C         21.8810   44.9490   13.1190 C.2    98  HIS98       0.2264
     52  O         22.2210   45.8110   13.9240 O.2    98  HIS98      -0.2867
     53  CB        21.4160   42.9130   14.4510 C.3    98  HIS98       0.0745
     54  CG        19.9700   42.8140   14.0780 C.ar   98  HIS98       0.0817
     55  ND1       19.4480   41.7180   13.4280 N.ar   98  HIS98      -0.2268
     56  CD2       18.9770   43.7340   14.1230 C.ar   98  HIS98       0.1154
     57  CE1       18.1980   41.9690   13.0780 C.ar   98  HIS98       0.1986
     58  NE2       17.8890   43.1860   13.4880 N.ar   98  HIS98      -0.2212
     59  N         16.4710   43.7700   10.3030 N.3   121  ALA121     -0.1245
     60  CA        15.1010   43.7710   10.8030 C.3   121  ALA121      0.1562
     61  C         14.1960   44.1670    9.6400 C.2   121  ALA121      0.2260
     62  O         14.4580   45.1560    8.9580 O.2   121  ALA121     -0.2867
     63  CB        14.9550   44.7760   11.9390 C.3   121  ALA121      0.0290
     64  N         20.4470   36.8580    7.5390 N.3   138  TYR138     -0.1241
     65  CA        19.1820   36.5090    8.1860 C.3   138  TYR138      0.1605
     66  C         18.3340   37.7540    8.3620 C.2   138  TYR138      0.2264
     67  O         18.8360   38.8740    8.2910 O.2   138  TYR138     -0.2867
     68  CB        19.4170   35.8320    9.5560 C.3   138  TYR138      0.0534
     69  CG        19.7790   36.7570   10.7090 C.ar  138  TYR138     -0.0201
     70  CD1       18.7960   37.4900   11.3880 C.ar  138  TYR138     -0.0009
     71  CD2       21.1020   36.8970   11.1260 C.ar  138  TYR138     -0.0009
     72  CE1       19.1290   38.3360   12.4500 C.ar  138  TYR138      0.0417
     73  CE2       21.4430   37.7400   12.1830 C.ar  138  TYR138      0.0417
     74  CZ        20.4550   38.4560   12.8390 C.ar  138  TYR138      0.1957
     75  OH        20.7980   39.3100   13.8620 O.3   138  TYR138     -0.2866
     76  N         15.1160   39.5070   10.8200 N.3   140  GLY140     -0.1225
     77  CA        14.3540   39.4340   12.0540 C.3   140  GLY140      0.1811
     78  C         13.0000   40.0350   11.7430 C.2   140  GLY140      0.2280
     79  O         12.9060   41.2150   11.3890 O.2   140  GLY140     -0.2866
     80  N         10.7150   47.5120   23.4840 N.3   150  LYS150     -0.1245
     81  CA        11.1080   48.4710   22.4540 C.3   150  LYS150      0.1561
     82  C          9.8170   49.2340   22.1690 C.2   150  LYS150      0.2260
     83  O          8.8260   48.6440   21.7420 O.2   150  LYS150     -0.2867
     84  CB        11.5950   47.7620   21.1850 C.3   150  LYS150      0.0271
     85  CG        11.9200   48.7140   20.0240 C.3   150  LYS150      0.0035
     86  CD        12.4260   47.9590   18.8020 C.3   150  LYS150      0.0206
     87  CE        12.4910   48.8550   17.5690 C.3   150  LYS150      0.1093
     88  NZ        13.4060   50.0190   17.7560 N.3   150  LYS150     -0.1314
     89  N         14.1280   34.7780   11.9060 N.3   175  VAL175     -0.1245
     90  CA        13.9470   34.6490   13.3430 C.3   175  VAL175      0.1561
     91  C         12.8120   35.6000   13.7040 C.2   175  VAL175      0.2260
     92  O         12.7510   36.7250   13.2080 O.2   175  VAL175     -0.2867
     93  CB        15.2350   34.9910   14.1530 C.3   175  VAL175      0.0252
     94  CG1       15.6530   36.4360   13.9280 C.3   175  VAL175      0.0019
     95  CG2       14.9950   34.7220   15.6400 C.3   175  VAL175      0.0019
     96  N         10.5500   37.9210   16.3750 N.3   177  ILE177     -0.1245
     97  CA        10.8350   38.7300   17.5500 C.3   177  ILE177      0.1561
     98  C          9.6460   39.5900   17.9640 C.2   177  ILE177      0.2260
     99  O          8.8280   39.9900   17.1310 O.2   177  ILE177     -0.2867
    100  CB        12.0590   39.6490   17.3040 C.3   177  ILE177      0.0252
    101  CG1       12.4570   40.3600   18.6010 C.3   177  ILE177      0.0019
    102  CG2       11.7410   40.6590   16.2050 C.3   177  ILE177      0.0019
    103  CD1       13.8540   40.9330   18.5650 C.3   177  ILE177      0.0001
    104  N         13.5530   35.0020   18.9970 N.3   197  SER197     -0.1217
    105  CA        14.4420   35.9170   19.6950 C.3   197  SER197      0.1889
    106  C         13.6410   36.5830   20.8040 C.2   197  SER197      0.2288
    107  O         12.4400   36.8390   20.6520 O.2   197  SER197     -0.2866
    108  CB        14.9910   36.9640   18.7280 C.3   197  SER197      0.2089
    109  OG        15.8730   37.8520   19.3930 O.3   197  SER197     -0.2183
@<TRIPOS>BOND
     1    64    65    1
     2    65    66    1
     3    65    68    1
     4    67    66    2
     5    62    61    2
     6    68    69    1
     7    61    60    1
     8    59    60    1
     9    69    71   ar
    10    69    70   ar
    11    60    63    1
    12    76    77    1
    13    71    73   ar
    14    70    72   ar
    15    79    78    2
    16    78    77    1
    17    89    90    1
    18    73    74   ar
    19    72    74   ar
    20    74    75    1
    21    57    55   ar
    22    57    58   ar
    23    51    50    1
    24    51    52    2
    25    92    91    2
    26    50    49    1
    27    50    53    1
    28    90    91    1
    29    90    93    1
    30    55    54   ar
    31    58    56   ar
    32    94    93    1
    33    54    56   ar
    34    54    53    1
    35    93    95    1
    36   102   100    1
    37    10     8   ar
    38    10    11   ar
    39    96    97    1
    40    12    11    1
    41    47    46    2
    42     8     6   ar
    43    11     9   ar
    44    43    42    1
    45    43    44    2
    46    99    98    2
    47   100    97    1
    48   100   101    1
    49    42    41    1
    50    42    45    1
    51    29    27   am
    52    97    98    1
    53    87    88    1
    54    87    86    1
    55    46    48   am
    56    46    45    1
    57     6     5    1
    58     6     7   ar
    59     9     7   ar
    60    27    28    2
    61    27    26    1
    62   103   101    1
    63     5     2    1
    64   108   109    1
    65   108   105    1
    66    86    85    1
    67   104   105    1
    68    26    25    1
    69   105   106    1
    70    25    22    1
    71    20    18    1
    72    85    84    1
    73     2     1    1
    74     2     3    1
    75    22    21    1
    76    22    23    1
    77   107   106    2
    78    18    17    1
    79    37    36    1
    80    37    38    2
    81     4     3    2
    82    36    35    1
    83    84    81    1
    84    40    38    1
    85    35    34    1
    86    38    39    1
    87    23    24    2
    88    83    82    2
    89    19    17    1
    90    34    31    1
    91    17    14    1
    92    82    81    1
    93    31    30    1
    94    31    32    1
    95    81    80    1
    96    14    13    1
    97    14    15    1
    98    32    33    2
    99    15    16    2
