@<TRIPOS>MOLECULE
tmp/1g6gA00.pdb
 129 125 0 0 0
SMALL
GASTEIGER

@<TRIPOS>ATOM
      1  N          2.7000   16.8170    6.1270 N.3    42  ARG42      -0.1231
      2  CA         1.2460   16.7790    5.8340 C.3    42  ARG42       0.1694
      3  C          0.9490   15.8390    4.6580 C.2    42  ARG42       0.2592
      4  O         -0.1410   15.2260    4.5920 O.2    42  ARG42      -0.2718
      5  CB         0.7760   18.1990    5.5380 C.3    42  ARG42       0.0321
      6  CG        -0.6030   18.3040    4.8130 C.3    42  ARG42       0.0489
      7  CD        -1.2220   19.6520    5.0050 C.3    42  ARG42       0.2205
      8  NE        -0.3280   20.7560    4.6400 N.pl3  42  ARG42      -0.0865
      9  CZ        -0.2000   21.3040    3.4350 C.cat  42  ARG42       0.5346
     10  NH1       -0.8900   20.8400    2.3860 N.pl3  42  ARG42       0.1354
     11  NH2        0.6870   22.3020    3.2380 N.pl3  42  ARG42       0.1354
     12  N          1.9040   15.6440    3.7460 N.am   43  ASN43      -0.1961
     13  CA         1.7010   14.7350    2.6230 C.3    43  ASN43       0.1804
     14  C          1.7320   13.2890    3.1290 C.2    43  ASN43       0.2468
     15  O          2.7210   12.8580    3.6650 O.2    43  ASN43      -0.2730
     16  CB         2.8390   14.9330    1.6180 C.3    43  ASN43       0.1195
     17  CG         2.6380   14.1560    0.3290 C.2    43  ASN43       0.2630
     18  OD1        1.9330   13.1420    0.2870 O.2    43  ASN43      -0.2716
     19  ND2        3.2550   14.6440   -0.7420 N.am   43  ASN43      -0.0877
     20  N          0.6690   12.5080    2.9600 N.am   44  PRO44      -0.2651
     21  CA         0.6940   11.1230    3.4480 C.3    44  PRO44       0.1628
     22  C          1.7260   10.2100    2.7640 C.2    44  PRO44       0.2315
     23  O          1.9160    9.0560    3.1950 O.2    44  PRO44      -0.2861
     24  CB        -0.7280   10.6110    3.1940 C.2    44  PRO44      -0.0016
     25  CG        -1.4790   11.7210    2.6640 C.2    44  PRO44      -0.0072
     26  CD        -0.6040   12.8960    2.3360 C.3    44  PRO44       0.1203
     27  N         -3.7320   16.7060    8.2800 N.3    52  ASN52      -0.1240
     28  CA        -4.1570   17.7060    7.3100 C.3    52  ASN52       0.1653
     29  C         -4.2880   19.0860    7.9320 C.2    52  ASN52       0.2266
     30  O         -5.3940   19.6490    8.0660 O.2    52  ASN52      -0.2867
     31  CB        -5.4890   17.2860    6.6790 C.3    52  ASN52       0.1155
     32  CG        -5.8910   18.2040    5.5340 C.2    52  ASN52       0.2627
     33  OD1       -5.0330   18.8290    4.9150 O.2    52  ASN52      -0.2716
     34  ND2       -7.2010   18.3300    5.2750 N.am   52  ASN52      -0.0877
     35  N         -3.0770   22.8880    7.5250 N.3    54  SER54      -0.1202
     36  CA        -2.5700   23.7010    6.4110 C.3    54  SER54       0.2020
     37  C         -1.2850   24.4660    6.6490 C.2    54  SER54       0.2619
     38  O         -0.5740   24.7940    5.6900 O.2    54  SER54      -0.2717
     39  CB        -3.6480   24.6590    5.8890 C.3    54  SER54       0.2103
     40  OG        -4.1570   25.4310    6.9410 O.3    54  SER54      -0.2182
     41  N         -1.0120   24.7680    7.9190 N.am   55  ARG55      -0.1965
     42  CA         0.1960   25.5100    8.2730 C.3    55  ARG55       0.1729
     43  C          1.3670   24.5520    8.3630 C.2    55  ARG55       0.2616
     44  O          2.4980   25.0290    8.4780 O.2    55  ARG55      -0.2715
     45  CB         0.0370   26.2640    9.5910 C.3    55  ARG55       0.0348
     46  CG        -0.7960   27.5470    9.4310 C.3    55  ARG55       0.0492
     47  CD        -1.0900   28.2110   10.7740 C.3    55  ARG55       0.2205
     48  NE         0.1400   28.6400   11.4420 N.pl3  55  ARG55      -0.0865
     49  CZ         0.6620   28.0570   12.5240 C.cat  55  ARG55       0.5346
     50  NH1        0.0760   27.0050   13.0880 N.pl3  55  ARG55       0.1354
     51  NH2        1.7910   28.5460   13.0340 N.pl3  55  ARG55       0.1354
     52  N          1.1150   23.2470    8.3480 N.am   56  LEU56      -0.1963
     53  CA         2.2520   22.3000    8.3350 C.3    56  LEU56       0.1728
     54  C          2.6770   22.0410    6.8910 C.2    56  LEU56       0.2617
     55  O          1.8680   22.0090    5.9620 O.2    56  LEU56      -0.2715
     56  CB         1.9400   20.9910    9.0640 C.3    56  LEU56       0.0311
     57  CG         1.4920   21.1240   10.5310 C.3    56  LEU56       0.0022
     58  CD1        1.3220   19.7590   11.1700 C.3    56  LEU56       0.0001
     59  CD2        2.4930   21.9830   11.3490 C.3    56  LEU56       0.0001
     60  N          3.9810   21.8810    6.6650 N.am   57  SER57      -0.1936
     61  CA         4.4310   21.6350    5.3160 C.3    57  SER57       0.2055
     62  C          4.2180   20.1970    4.8470 C.2    57  SER57       0.2643
     63  O          4.2020   19.2530    5.6420 O.2    57  SER57      -0.2714
     64  CB         5.9120   22.0030    5.1820 C.3    57  SER57       0.2130
     65  OG         6.0940   23.4050    5.3130 O.3    57  SER57      -0.2179
     66  N          4.0430   20.0550    3.5370 N.am   58  ASN58      -0.1957
     67  CA         3.8840   18.7480    2.8910 C.3    58  ASN58       0.1819
     68  C          5.0200   17.8200    3.2900 C.2    58  ASN58       0.2621
     69  O          4.7910   16.6770    3.6540 O.2    58  ASN58      -0.2715
     70  CB         3.8130   18.8870    1.3770 C.3    58  ASN58       0.1195
     71  CG         2.4610   19.3970    0.9130 C.2    58  ASN58       0.2630
     72  OD1        1.4670   18.6810    0.9430 O.2    58  ASN58      -0.2716
     73  ND2        2.4320   20.6470    0.4900 N.am   58  ASN58      -0.0877
     74  N          6.2450   18.3690    3.2420 N.am   59  LYS59      -0.1977
     75  CA         7.4640   17.6840    3.7790 C.3    59  LYS59       0.1596
     76  C          7.9900   18.7210    4.7660 C.2    59  LYS59       0.2287
     77  O          8.4360   19.8080    4.3670 O.2    59  LYS59      -0.2864
     78  CB         8.4840   17.3270    2.6530 C.3    59  LYS59       0.0298
     79  CG         7.8350   16.5090    1.5270 C.3    59  LYS59       0.0038
     80  CD         8.9390   15.8140    0.7060 C.3    59  LYS59       0.0206
     81  CE         8.3300   15.0830   -0.4890 C.3    59  LYS59       0.1093
     82  NZ         9.1610   13.9300   -0.9990 N.3    59  LYS59      -0.1314
     83  N         12.8380   21.5020    7.2610 N.3    76  ILE76      -0.1231
     84  CA        12.7640   21.9350    5.8610 C.3    76  ILE76       0.1692
     85  C         11.4040   22.6200    5.6080 C.2    76  ILE76       0.2593
     86  O         10.9390   22.7060    4.4620 O.2    76  ILE76      -0.2718
     87  CB        12.9710   20.7430    4.8930 C.3    76  ILE76       0.0266
     88  CG1       11.9110   19.6370    5.1050 C.3    76  ILE76       0.0019
     89  CG2       14.3890   20.1510    5.0470 C.3    76  ILE76       0.0020
     90  CD1       11.9310   18.5430    3.9690 C.3    76  ILE76       0.0001
     91  N         10.8260   23.1350    6.6890 N.am   77  SER77      -0.1938
     92  CA         9.4560   23.6210    6.6040 C.3    77  SER77       0.2055
     93  C          9.3290   25.0900    6.2400 C.2    77  SER77       0.2644
     94  O         10.3010   25.8520    6.2960 O.2    77  SER77      -0.2714
     95  CB         8.7720   23.3890    7.9680 C.3    77  SER77       0.2130
     96  OG         9.2670   24.3010    8.9550 O.3    77  SER77      -0.2179
     97  N          8.1010   25.5250    5.9700 N.am   78  THR78      -0.1936
     98  CA         7.8270   26.9350    5.8020 C.3    78  THR78       0.2028
     99  C          7.6670   27.6660    7.1460 C.2    78  THR78       0.2642
    100  O          8.2990   28.7180    7.3660 O.2    78  THR78      -0.2714
    101  CB         6.5240   27.0860    4.9950 C.3    78  THR78       0.1808
    102  OG1        6.8050   26.7680    3.6270 O.3    78  THR78      -0.2208
    103  CG2        6.0660   28.5400    4.9810 C.3    78  THR78       0.0379
    104  N          6.9000   27.0740    8.0660 N.am   79  ASN79      -0.1971
    105  CA         6.5740   27.7660    9.3280 C.3    79  ASN79       0.1688
    106  C          7.3900   27.4400   10.5700 C.2    79  ASN79       0.2292
    107  O          7.1960   28.0820   11.5970 O.2    79  ASN79      -0.2864
    108  CB         5.0700   27.6820    9.6390 C.3    79  ASN79       0.1181
    109  CG         4.2420   28.4510    8.6170 C.2    79  ASN79       0.2629
    110  OD1        4.6180   29.5630    8.2090 O.2    79  ASN79      -0.2716
    111  ND2        3.1430   27.8420    8.1640 N.am   79  ASN79      -0.0877
    112  N          3.6820   25.6440   16.2020 N.3   106  VAL106     -0.1231
    113  CA         3.7890   26.7630   17.1640 C.3   106  VAL106      0.1692
    114  C          3.3790   28.0820   16.4990 C.2   106  VAL106      0.2593
    115  O          3.7680   28.3760   15.3620 O.2   106  VAL106     -0.2718
    116  CB         5.2310   26.8450   17.7290 C.3   106  VAL106      0.0266
    117  CG1        5.3920   28.1210   18.5700 C.3   106  VAL106      0.0020
    118  CG2        5.5460   25.6170   18.5760 C.3   106  VAL106      0.0020
    119  N          2.5440   28.8610   17.1970 N.am  107  GLY107     -0.1942
    120  CA         2.0530   30.1080   16.6240 C.3   107  GLY107      0.2014
    121  C          0.5390   30.1300   16.5630 C.2   107  GLY107      0.2638
    122  O         -0.0780   31.2090   16.5290 O.2   107  GLY107     -0.2714
    123  N         -0.0480   28.9420   16.5190 N.am  108  VAL108     -0.1977
    124  CA        -1.4820   28.7630   16.6400 C.3   108  VAL108      0.1596
    125  C         -1.6740   27.6230   17.6270 C.2   108  VAL108      0.2287
    126  O         -1.4380   26.4750   17.3150 O.2   108  VAL108     -0.2864
    127  CB        -2.1610   28.4290   15.2960 C.3   108  VAL108      0.0276
    128  CG1       -3.6580   28.1790   15.5220 C.3   108  VAL108      0.0022
    129  CG2       -1.9350   29.5350   14.2940 C.3   108  VAL108      0.0022
@<TRIPOS>BOND
     1    82    81    1
     2    19    17   am
     3    81    80    1
     4    18    17    2
     5    17    16    1
     6    73    71   am
     7    80    79    1
     8    71    72    2
     9    71    70    1
    10    70    67    1
    11    79    78    1
    12    16    13    1
    13    26    25    1
    14    26    20    1
    15    10     9    1
    16    13    14    1
    17    13    12    1
    18    78    75    1
    19    25    24    2
    20    22    23    2
    21    22    21    1
    22    67    68    1
    23    67    66    1
    24    20    14   am
    25    20    21    1
    26    14    15    2
    27    24    21    1
    28    11     9    1
    29    74    68   am
    30    74    75    1
    31    68    69    2
    32     9     8    2
    33    66    62   am
    34   102   101    1
    35    12     3   am
    36    75    76    1
    37    90    88    1
    38    77    76    2
    39    86    85    2
    40     4     3    2
    41     8     7    1
    42     3     2    1
    43     6     7    1
    44     6     5    1
    45    62    61    1
    46    62    63    2
    47    87    89    1
    48    87    88    1
    49    87    84    1
    50    33    32    2
    51   103   101    1
    52   101    98    1
    53    64    65    1
    54    64    61    1
    55    34    32   am
    56    61    60    1
    57    32    31    1
    58     5     2    1
    59    85    84    1
    60    85    91   am
    61    38    37    2
    62    98    97    1
    63    98    99    1
    64     2     1    1
    65    84    83    1
    66    39    36    1
    67    39    40    1
    68    55    54    2
    69    97    93   am
    70    93    94    2
    71    93    92    1
    72    36    37    1
    73    36    35    1
    74    92    91    1
    75    92    95    1
    76    37    41   am
    77    60    54   am
    78    31    28    1
    79    54    53    1
    80    99   100    2
    81    99   104   am
    82    28    29    1
    83    28    27    1
    84    41    42    1
    85    29    30    2
    86    95    96    1
    87   104   105    1
    88   111   109   am
    89   110   109    2
    90    42    43    1
    91    42    45    1
    92    53    52    1
    93    53    56    1
    94    52    43   am
    95    43    44    2
    96   109   108    1
    97    56    57    1
    98   105   108    1
    99   105   106    1
   100    46    45    1
   101    46    47    1
   102    57    58    1
   103    57    59    1
   104   106   107    2
   105    47    48    1
   106    48    49    2
   107    49    51    1
   108    49    50    1
   109   129   127    1
   110   127   128    1
   111   127   124    1
   112   115   114    2
   113   112   113    1
   114   114   113    1
   115   114   119   am
   116   123   121   am
   117   123   124    1
   118   122   121    2
   119   121   120    1
   120   120   119    1
   121   124   125    1
   122   113   116    1
   123   126   125    2
   124   116   117    1
   125   116   118    1
