@<TRIPOS>MOLECULE
tmp/1g6hA00.pdb
 96 91 0 0 0
SMALL
GASTEIGER

@<TRIPOS>ATOM
      1  N         21.9220   23.0850   55.2010 N.3    14  PHE14      -0.1241
      2  CA        22.0730   24.5280   54.9690 C.3    14  PHE14       0.1605
      3  C         21.0190   25.0310   55.9150 C.2    14  PHE14       0.2264
      4  O         19.8370   24.9720   55.6180 O.2    14  PHE14      -0.2867
      5  CB        21.7790   24.9030   53.5140 C.3    14  PHE14       0.0534
      6  CG        22.8760   24.5040   52.5670 C.ar   14  PHE14      -0.0203
      7  CD1       24.1860   24.8930   52.7900 C.ar   14  PHE14      -0.0042
      8  CD2       22.5980   23.7350   51.4550 C.ar   14  PHE14      -0.0042
      9  CE1       25.2020   24.5200   51.9260 C.ar   14  PHE14      -0.0003
     10  CE2       23.6140   23.3540   50.5780 C.ar   14  PHE14      -0.0003
     11  CZ        24.9180   23.7490   50.8190 C.ar   14  PHE14      -0.0000
     12  N         17.8250   22.8970   56.4890 N.3    17  PHE17      -0.1241
     13  CA        17.5480   22.2370   55.2030 C.3    17  PHE17       0.1605
     14  C         18.5610   21.1720   54.8520 C.2    17  PHE17       0.2264
     15  O         19.7540   21.4390   54.8100 O.2    17  PHE17      -0.2867
     16  CB        17.4970   23.3180   54.0920 C.3    17  PHE17       0.0534
     17  CG        17.3970   22.7950   52.6680 C.ar   17  PHE17      -0.0203
     18  CD1       16.1970   22.2800   52.1660 C.ar   17  PHE17      -0.0042
     19  CD2       18.4950   22.8750   51.8090 C.ar   17  PHE17      -0.0042
     20  CE1       16.1030   21.8570   50.8170 C.ar   17  PHE17      -0.0003
     21  CE2       18.4020   22.4620   50.4910 C.ar   17  PHE17      -0.0003
     22  CZ        17.2160   21.9540   49.9880 C.ar   17  PHE17      -0.0000
     23  N         20.0910   19.5480   52.1540 N.3    19  ALA19      -0.1245
     24  CA        20.4230   19.6620   50.7440 C.3    19  ALA19       0.1562
     25  C         20.8360   18.3130   50.1510 C.2    19  ALA19       0.2260
     26  O         20.6010   18.0530   48.9700 O.2    19  ALA19      -0.2867
     27  CB        21.5280   20.6560   50.5590 C.3    19  ALA19       0.0290
     28  N         16.3750   21.5430   38.9720 N.3    39  ASN39      -0.1225
     29  CA        17.1290   22.5250   39.7240 C.3    39  ASN39       0.1785
     30  C         16.8230   22.4060   41.2100 C.2    39  ASN39       0.2598
     31  O         15.6860   22.1120   41.6040 O.2    39  ASN39      -0.2718
     32  CB        16.7900   23.9150   39.2340 C.3    39  ASN39       0.1169
     33  CG        17.0440   24.0740   37.7670 C.2    39  ASN39       0.2627
     34  OD1       16.2030   24.5850   37.0450 O.2    39  ASN39      -0.2716
     35  ND2       18.1970   23.6160   37.3070 N.am   39  ASN39      -0.0877
     36  N         17.8530   22.5780   42.0290 N.am   40  GLY40      -0.1942
     37  CA        17.6740   22.5220   43.4620 C.3    40  GLY40       0.2014
     38  C         17.6850   21.1270   44.0480 C.2    40  GLY40       0.2640
     39  O         17.4450   20.9660   45.2530 O.2    40  GLY40      -0.2714
     40  N         17.9790   20.1230   43.2250 N.am   41  SER41      -0.1935
     41  CA        17.9900   18.7550   43.7210 C.3    41  SER41       0.2055
     42  C         19.2750   18.3820   44.4480 C.2    41  SER41       0.2644
     43  O         19.3630   17.2890   45.0050 O.2    41  SER41      -0.2714
     44  CB        17.6420   17.7770   42.6020 C.3    41  SER41       0.2130
     45  OG        18.5960   17.8360   41.5730 O.3    41  SER41      -0.2179
     46  N         20.2490   19.2980   44.4570 N.am   42  GLY42      -0.1939
     47  CA        21.4830   19.0830   45.1800 C.3    42  GLY42       0.2014
     48  C         22.7070   18.6390   44.4130 C.2    42  GLY42       0.2639
     49  O         23.7030   18.2560   45.0360 O.2    42  GLY42      -0.2714
     50  N         22.6540   18.7020   43.0840 N.am   43  LYS43      -0.1963
     51  CA        23.7780   18.2910   42.2460 C.3    43  LYS43       0.1728
     52  C         25.0250   19.1420   42.4650 C.2    43  LYS43       0.2617
     53  O         26.1030   18.6010   42.7060 O.2    43  LYS43      -0.2715
     54  CB        23.3820   18.3500   40.7940 C.3    43  LYS43       0.0311
     55  CG        22.0660   17.6780   40.4860 C.3    43  LYS43       0.0038
     56  CD        21.7540   17.7210   39.0060 C.3    43  LYS43       0.0206
     57  CE        21.5550   19.1220   38.4960 C.3    43  LYS43       0.1093
     58  NZ        20.4160   19.7560   39.1600 N.3    43  LYS43      -0.1314
     59  N         24.8910   20.4750   42.3940 N.am   44  SER44      -0.1936
     60  CA        26.0720   21.3170   42.6210 C.3    44  SER44       0.2055
     61  C         26.5940   21.1470   44.0420 C.2    44  SER44       0.2643
     62  O         27.7970   21.0700   44.2520 O.2    44  SER44      -0.2714
     63  CB        25.7640   22.7670   42.3420 C.3    44  SER44       0.2130
     64  OG        25.3710   22.9570   40.9940 O.3    44  SER44      -0.2179
     65  N         25.6940   20.9840   45.0100 N.am   45  THR45      -0.1950
     66  CA        26.1090   20.7610   46.4010 C.3    45  THR45       0.1897
     67  C         26.9530   19.4750   46.5600 C.2    45  THR45       0.2313
     68  O         28.0110   19.4940   47.1890 O.2    45  THR45      -0.2863
     69  CB        24.8990   20.7360   47.3480 C.3    45  THR45       0.1794
     70  OG1       24.2250   21.9940   47.2730 O.3    45  THR45      -0.2208
     71  CG2       25.3340   20.5280   48.7720 C.3    45  THR45       0.0378
     72  N         30.2480   20.0950   45.0820 N.3    48  ASN48      -0.1240
     73  CA        30.9790   21.0500   45.9250 C.3    48  ASN48       0.1653
     74  C         31.5430   20.3690   47.1510 C.2    48  ASN48       0.2266
     75  O         32.6060   20.7470   47.6170 O.2    48  ASN48      -0.2867
     76  CB        30.0940   22.2220   46.3330 C.3    48  ASN48       0.1155
     77  CG        29.8850   23.2190   45.1990 C.2    48  ASN48       0.2627
     78  OD1       30.6550   23.2590   44.2400 O.2    48  ASN48      -0.2716
     79  ND2       28.8380   24.0230   45.3020 N.am   48  ASN48      -0.0877
     80  N         32.6980   22.6100   50.0810 N.3    54  LEU54      -0.1245
     81  CA        31.7310   22.4630   51.1470 C.3    54  LEU54       0.1561
     82  C         32.1020   21.2150   51.9160 C.2    54  LEU54       0.2260
     83  O         32.5320   20.2150   51.3450 O.2    54  LEU54      -0.2867
     84  CB        30.3130   22.2860   50.5910 C.3    54  LEU54       0.0270
     85  CG        29.5690   23.4880   50.0170 C.3    54  LEU54       0.0019
     86  CD1       28.2060   23.1140   49.5220 C.3    54  LEU54       0.0001
     87  CD2       29.5050   24.6050   51.0410 C.3    54  LEU54       0.0001
     88  N         27.6490   21.4730   34.8530 N.3   176  GLU176     -0.1245
     89  CA        26.8840   22.0160   33.7330 C.3   176  GLU176      0.1567
     90  C         27.7090   22.6400   32.5990 C.2   176  GLU176      0.2260
     91  O         27.4110   23.7400   32.1430 O.2   176  GLU176     -0.2867
     92  CB        25.7920   22.9550   34.2630 C.3   176  GLU176      0.0388
     93  CG        24.9750   22.2620   35.3680 C.3   176  GLU176      0.1160
     94  CD        23.5400   22.7460   35.4890 C.2   176  GLU176      0.3649
     95  OE1       23.0450   23.4670   34.5830 O.co2 176  GLU176     -0.2457
     96  OE2       22.9010   22.3800   36.5030 O.co2 176  GLU176     -0.2457
@<TRIPOS>BOND
     1    91    90    2
     2    90    89    1
     3    89    92    1
     4    89    88    1
     5    92    93    1
     6    95    94   ar
     7    93    94    1
     8    94    96   ar
     9    34    33    2
    10    35    33   am
    11    33    32    1
    12    57    56    1
    13    57    58    1
    14    28    29    1
    15    56    55    1
    16    32    29    1
    17    29    30    1
    18    55    54    1
    19    54    51    1
    20    64    63    1
    21    30    31    2
    22    30    36   am
    23    45    44    1
    24    36    37    1
    25    51    52    1
    26    51    50    1
    27    63    60    1
    28    59    52   am
    29    59    60    1
    30    52    53    2
    31    44    41    1
    32    60    61    1
    33    50    48   am
    34    40    41    1
    35    40    38   am
    36    37    38    1
    37    41    42    1
    38    61    62    2
    39    61    65   am
    40    38    39    2
    41    78    77    2
    42    48    49    2
    43    48    47    1
    44    42    46   am
    45    42    43    2
    46    46    47    1
    47    65    66    1
    48    72    73    1
    49    77    79   am
    50    77    76    1
    51    73    76    1
    52    73    74    1
    53    66    67    1
    54    66    69    1
    55    67    68    2
    56    74    75    2
    57    70    69    1
    58    69    71    1
    59    26    25    2
    60    86    85    1
    61    22    21   ar
    62    22    20   ar
    63    85    84    1
    64    85    87    1
    65    80    81    1
    66    25    24    1
    67    21    19   ar
    68    27    24    1
    69    10    11   ar
    70    10     8   ar
    71    84    81    1
    72    24    23    1
    73    20    18   ar
    74    11     9   ar
    75    81    82    1
    76    83    82    2
    77     8     6   ar
    78    19    17   ar
    79     9     7   ar
    80    18    17   ar
    81     6     7   ar
    82     6     5    1
    83    17    16    1
    84     5     2    1
    85    16    13    1
    86    15    14    2
    87    14    13    1
    88     2     1    1
    89     2     3    1
    90    13    12    1
    91     4     3    2
