@<TRIPOS>MOLECULE
tmp/1g6iA03.pdb
 133 127 0 0 0
SMALL
GASTEIGER

@<TRIPOS>ATOM
      1  N         -2.3670   53.1740   -6.5040 N.3    98  PHE98      -0.1227
      2  CA        -2.9700   54.5050   -6.4670 C.3    98  PHE98       0.1736
      3  C         -3.0990   55.0710   -5.0520 C.2    98  PHE98       0.2595
      4  O         -2.5560   56.1350   -4.7510 O.2    98  PHE98      -0.2718
      5  CB        -4.3420   54.4580   -7.1470 C.3    98  PHE98       0.0547
      6  CG        -5.2340   55.6190   -6.8070 C.ar   98  PHE98      -0.0202
      7  CD1       -4.9560   56.8990   -7.2780 C.ar   98  PHE98      -0.0042
      8  CD2       -6.3630   55.4230   -6.0170 C.ar   98  PHE98      -0.0042
      9  CE1       -5.8000   57.9690   -6.9670 C.ar   98  PHE98      -0.0003
     10  CE2       -7.2080   56.4740   -5.6970 C.ar   98  PHE98      -0.0003
     11  CZ        -6.9270   57.7550   -6.1780 C.ar   98  PHE98      -0.0000
     12  N         -3.8080   54.3650   -4.1790 N.am   99  GLU99      -0.1979
     13  CA        -4.0020   54.8460   -2.8150 C.3    99  GLU99       0.1602
     14  C         -2.6920   55.0700   -2.0760 C.2    99  GLU99       0.2287
     15  O         -2.5110   56.0880   -1.4120 O.2    99  GLU99      -0.2864
     16  CB        -4.8580   53.8630   -2.0050 C.3    99  GLU99       0.0415
     17  CG        -6.3040   53.7700   -2.4460 C.3    99  GLU99       0.1163
     18  CD        -7.1470   54.9650   -2.0220 C.2    99  GLU99       0.3649
     19  OE1       -6.6200   55.8840   -1.3580 O.co2  99  GLU99      -0.2457
     20  OE2       -8.3470   54.9760   -2.3520 O.co2  99  GLU99      -0.2457
     21  N         -0.9610   58.2920   -3.6190 N.3   102  ILE102     -0.1231
     22  CA        -1.5310   59.5900   -3.2720 C.3   102  ILE102      0.1692
     23  C         -1.5270   59.9230   -1.7900 C.2   102  ILE102      0.2591
     24  O         -1.3500   61.0840   -1.4110 O.2   102  ILE102     -0.2718
     25  CB        -2.9750   59.7680   -3.8160 C.3   102  ILE102      0.0266
     26  CG1       -3.9180   58.7260   -3.2120 C.3   102  ILE102      0.0019
     27  CG2       -2.9600   59.6950   -5.3440 C.3   102  ILE102      0.0020
     28  CD1       -5.3790   59.1530   -3.2490 C.3   102  ILE102      0.0001
     29  N         -1.6990   58.9140   -0.9450 N.am  103  ARG103     -0.1980
     30  CA        -1.7420   59.1400    0.4850 C.3   103  ARG103      0.1597
     31  C         -0.3780   59.0530    1.1770 C.2   103  ARG103      0.2287
     32  O          0.0620   60.0150    1.8160 O.2   103  ARG103     -0.2864
     33  CB        -2.7670   58.1650    1.0940 C.3   103  ARG103      0.0334
     34  CG        -4.1320   58.3430    0.4010 C.3   103  ARG103      0.0492
     35  CD        -5.1680   57.2420    0.6030 C.3   103  ARG103      0.2205
     36  NE        -5.9250   57.4340    1.8260 N.pl3 103  ARG103     -0.0865
     37  CZ        -7.1960   57.0790    2.0270 C.cat 103  ARG103      0.5346
     38  NH1       -7.9330   56.4980    1.0820 N.pl3 103  ARG103      0.1354
     39  NH2       -7.7270   57.2950    3.2170 N.pl3 103  ARG103      0.1354
     40  N        -12.5710   60.8380  -12.1730 N.3   242  ASP242     -0.1225
     41  CA       -12.2110   62.1490  -11.6300 C.3   242  ASP242      0.1805
     42  C        -10.7810   62.6770  -11.7100 C.2   242  ASP242      0.2598
     43  O        -10.5200   63.6700  -12.4080 O.2   242  ASP242     -0.2718
     44  CB       -12.6800   62.2730  -10.1620 C.3   242  ASP242      0.1424
     45  CG       -12.1980   61.1280   -9.2650 C.2   242  ASP242      0.3668
     46  OD1      -12.6630   61.0730   -8.1020 O.co2 242  ASP242     -0.2456
     47  OD2      -11.3660   60.2950   -9.6960 O.co2 242  ASP242     -0.2456
     48  N         -9.8560   62.0370  -11.0040 N.am  243  SER243     -0.1952
     49  CA        -8.4880   62.5420  -10.9580 C.3   243  SER243      0.1924
     50  C         -7.6320   62.4330  -12.2080 C.2   243  SER243      0.2314
     51  O         -6.5300   62.9670  -12.2430 O.2   243  SER243     -0.2863
     52  CB        -7.7490   61.9860   -9.7260 C.3   243  SER243      0.2116
     53  OG        -8.0040   60.6060   -9.5190 O.3   243  SER243     -0.2180
     54  N        -17.6250   63.1170   -5.0950 N.3   305  LEU305     -0.1245
     55  CA       -16.2440   63.2030   -5.5670 C.3   305  LEU305      0.1561
     56  C        -16.0650   64.2160   -6.6970 C.2   305  LEU305      0.2260
     57  O        -14.9910   64.7970   -6.8460 O.2   305  LEU305     -0.2867
     58  CB       -15.7680   61.8340   -6.0590 C.3   305  LEU305      0.0270
     59  CG       -15.4880   60.7830   -4.9900 C.3   305  LEU305      0.0019
     60  CD1      -15.2990   59.4290   -5.6540 C.3   305  LEU305      0.0001
     61  CD2      -14.2420   61.1690   -4.1950 C.3   305  LEU305      0.0001
     62  N        -15.9020   63.3200    3.4690 N.3   394  ARG394     -0.1231
     63  CA       -15.1970   63.7260    2.2530 C.3   394  ARG394      0.1679
     64  C        -14.9550   65.2350    2.1510 C.2   394  ARG394      0.2434
     65  O        -15.7840   66.0430    2.5690 O.2   394  ARG394     -0.2733
     66  CB       -15.9290   63.2020    1.0150 C.3   394  ARG394      0.0321
     67  CG       -15.8500   61.6650    0.8800 C.3   394  ARG394      0.0489
     68  CD       -16.3850   61.2020   -0.4650 C.3   394  ARG394      0.2205
     69  NE       -16.5050   59.7460   -0.5940 N.pl3 394  ARG394     -0.0865
     70  CZ       -15.4830   58.8990   -0.7070 C.cat 394  ARG394      0.5346
     71  NH1      -15.7200   57.6000   -0.8310 N.pl3 394  ARG394      0.1354
     72  NH2      -14.2290   59.3330   -0.6900 N.pl3 394  ARG394      0.1354
     73  N        -13.8160   65.6180    1.5560 N.am  395  PRO395     -0.2718
     74  CA       -13.3460   66.9970    1.3590 C.3   395  PRO395      0.1535
     75  C        -13.6620   67.7800    0.0830 C.2   395  PRO395      0.2598
     76  O        -13.5090   69.0070    0.0620 O.2   395  PRO395     -0.2715
     77  CB       -11.8480   66.8340    1.4970 C.3   395  PRO395      0.0310
     78  CG       -11.6250   65.5740    0.6700 C.3   395  PRO395      0.0237
     79  CD       -12.7890   64.6570    1.1060 C.3   395  PRO395      0.0939
     80  N        -14.0970   67.1020   -0.9680 N.am  396  GLU396     -0.1978
     81  CA       -14.2880   67.7750   -2.2480 C.3   396  GLU396      0.1602
     82  C        -15.0130   69.1150   -2.3240 C.2   396  GLU396      0.2287
     83  O        -14.6530   69.9470   -3.1570 O.2   396  GLU396     -0.2864
     84  CB       -14.8790   66.8050   -3.2700 C.3   396  GLU396      0.0415
     85  CG       -13.9290   65.6570   -3.5930 C.3   396  GLU396      0.1163
     86  CD       -13.8790   64.6360   -2.4770 C.2   396  GLU396      0.3649
     87  OE1      -12.8860   63.8880   -2.3940 O.co2 396  GLU396     -0.2457
     88  OE2      -14.8380   64.5840   -1.6850 O.co2 396  GLU396     -0.2457
     89  N        -12.9590   71.7250   -0.4410 N.3   399  GLU399     -0.1245
     90  CA       -11.7580   71.8340   -1.2610 C.3   399  GLU399      0.1567
     91  C        -11.9810   72.9660   -2.2610 C.2   399  GLU399      0.2260
     92  O        -11.1840   73.9010   -2.3550 O.2   399  GLU399     -0.2867
     93  CB       -11.5340   70.5140   -2.0110 C.3   399  GLU399      0.0388
     94  CG       -10.3100   70.4720   -2.9130 C.3   399  GLU399      0.1160
     95  CD       -10.1650   69.1300   -3.6180 C.2   399  GLU399      0.3649
     96  OE1      -10.7100   68.1270   -3.0960 O.co2 399  GLU399     -0.2457
     97  OE2       -9.5010   69.0820   -4.6790 O.co2 399  GLU399     -0.2457
     98  N         -8.5100   61.0510    5.3790 N.3   460  PHE460     -0.1241
     99  CA        -8.6730   62.3330    4.7060 C.3   460  PHE460      0.1605
    100  C         -9.5080   63.3590    5.4590 C.2   460  PHE460      0.2264
    101  O         -9.5690   64.5250    5.0570 O.2   460  PHE460     -0.2867
    102  CB        -9.1670   62.1380    3.2620 C.3   460  PHE460      0.0534
    103  CG       -10.3420   61.2170    3.1250 C.ar  460  PHE460     -0.0203
    104  CD1      -11.6290   61.6520    3.4210 C.ar  460  PHE460     -0.0042
    105  CD2      -10.1610   59.9220    2.6510 C.ar  460  PHE460     -0.0042
    106  CE1      -12.7260   60.8130    3.2390 C.ar  460  PHE460     -0.0003
    107  CE2      -11.2510   59.0670    2.4640 C.ar  460  PHE460     -0.0003
    108  CZ       -12.5380   59.5140    2.7580 C.ar  460  PHE460     -0.0000
    109  N         -7.3900   66.1420    4.4820 N.3   464  GLU464     -0.1245
    110  CA        -8.0540   67.0270    3.5380 C.3   464  GLU464      0.1567
    111  C         -9.1760   67.9240    4.0140 C.2   464  GLU464      0.2260
    112  O         -9.1110   69.1400    3.8640 O.2   464  GLU464     -0.2867
    113  CB        -8.6040   66.2090    2.3770 C.3   464  GLU464      0.0388
    114  CG        -7.5840   65.3920    1.6220 C.3   464  GLU464      0.1160
    115  CD        -8.1450   64.9510    0.3020 C.2   464  GLU464      0.3649
    116  OE1       -8.4830   63.7570    0.1650 O.co2 464  GLU464     -0.2457
    117  OE2       -8.2780   65.8130   -0.5870 O.co2 464  GLU464     -0.2457
    118  N         -3.8040   65.0080   -5.0160 N.3   486  THR486     -0.1203
    119  CA        -5.2120   64.7260   -4.8330 C.3   486  THR486      0.1994
    120  C         -5.6430   64.4140   -3.3960 C.2   486  THR486      0.2617
    121  O         -6.8340   64.3270   -3.1060 O.2   486  THR486     -0.2717
    122  CB        -5.6460   63.6090   -5.7950 C.3   486  THR486      0.1784
    123  OG1       -7.0520   63.7100   -6.0510 O.3   486  THR486     -0.2211
    124  CG2       -5.3030   62.2460   -5.2110 C.3   486  THR486      0.0376
    125  N         -4.6820   64.2670   -2.4960 N.am  487  GLU487     -0.1979
    126  CA        -4.9880   64.0120   -1.0970 C.3   487  GLU487      0.1602
    127  C         -4.6270   65.2740   -0.3010 C.2   487  GLU487      0.2287
    128  O         -4.2890   65.2140    0.8770 O.2   487  GLU487     -0.2864
    129  CB        -4.1960   62.7960   -0.5950 C.3   487  GLU487      0.0415
    130  CG        -4.5890   62.2620    0.7990 C.3   487  GLU487      0.1163
    131  CD        -5.8160   61.3500    0.7790 C.2   487  GLU487      0.3649
    132  OE1       -6.3490   61.1060   -0.3140 O.co2 487  GLU487     -0.2457
    133  OE2       -6.2320   60.8730    1.8600 O.co2 487  GLU487     -0.2457
@<TRIPOS>BOND
     1    43    42    2
     2    51    50    2
     3    50    49    1
     4    40    41    1
     5    42    41    1
     6    42    48   am
     7    41    44    1
     8    48    49    1
     9    49    52    1
    10    44    45    1
    11    52    53    1
    12    47    45   ar
    13    45    46   ar
    14     7     9   ar
    15     7     6   ar
    16     5     6    1
    17     5     2    1
    18     9    11   ar
    19    57    56    2
    20     6     8   ar
    21    56    55    1
    22     1     2    1
    23     2     3    1
    24    11    10   ar
    25    58    55    1
    26    58    59    1
    27   123   122    1
    28     8    10   ar
    29   122   124    1
    30   122   119    1
    31    60    59    1
    32    55    54    1
    33    27    25    1
    34     3     4    2
    35     3    12   am
    36   118   119    1
    37    59    61    1
    38   119   120    1
    39    97    95   ar
    40    12    13    1
    41    25    22    1
    42    25    26    1
    43    21    22    1
    44    95    96   ar
    45    95    94    1
    46    85    84    1
    47    85    86    1
    48   120   121    2
    49   120   125   am
    50    22    23    1
    51    84    81    1
    52    28    26    1
    53    83    82    2
    54    94    93    1
    55    13    14    1
    56    13    16    1
    57   125   126    1
    58    86    87   ar
    59    86    88   ar
    60    17    18    1
    61    17    16    1
    62    92    91    2
    63    20    18   ar
    64    82    81    1
    65    91    90    1
    66    81    80    1
    67    14    15    2
    68    18    19   ar
    69    93    90    1
    70    23    24    2
    71    23    29   am
    72    90    89    1
    73   126   129    1
    74   126   127    1
    75    80    75   am
    76    29    30    1
    77    71    70    1
    78    70    72    1
    79    70    69    2
    80   129   130    1
    81    69    68    1
    82   117   115   ar
    83    68    67    1
    84   132   131   ar
    85   127   128    2
    86    76    75    2
    87    75    74    1
    88   116   115   ar
    89   115   114    1
    90    34    35    1
    91    34    33    1
    92    30    33    1
    93    30    31    1
    94    35    36    1
    95    78    79    1
    96    78    77    1
    97   131   130    1
    98   131   133   ar
    99    67    66    1
   100    66    63    1
   101    38    37    1
   102    79    73    1
   103    31    32    2
   104    74    77    1
   105    74    73    1
   106    73    64   am
   107   114   113    1
   108    36    37    2
   109    37    39    1
   110    64    63    1
   111    64    65    2
   112    63    62    1
   113   113   110    1
   114   107   105   ar
   115   107   108   ar
   116   105   103   ar
   117   108   106   ar
   118   103   102    1
   119   103   104   ar
   120   106   104   ar
   121   102    99    1
   122   110   111    1
   123   110   109    1
   124   112   111    2
   125    99    98    1
   126    99   100    1
   127   101   100    2
