@<TRIPOS>MOLECULE
tmp/1g6oB00.pdb
 212 206 0 0 0
SMALL
GASTEIGER

@<TRIPOS>ATOM
      1  N        -17.8110   17.5230   27.3570 N.3    38  ASN38      -0.1225
      2  CA       -17.8360   18.4420   26.2290 C.3    38  ASN38       0.1785
      3  C        -18.6320   19.7220   26.4970 C.2    38  ASN38       0.2597
      4  O        -19.4460   20.1250   25.6640 O.2    38  ASN38      -0.2718
      5  CB       -18.4160   17.7490   24.9860 C.3    38  ASN38       0.1169
      6  CG       -17.8700   16.3440   24.7810 C.2    38  ASN38       0.2627
      7  OD1      -18.6290   15.3710   24.7880 O.2    38  ASN38      -0.2716
      8  ND2      -16.5540   16.2300   24.5970 N.am   38  ASN38      -0.0877
      9  N        -18.4330   20.3520   27.6540 N.am   39  ILE39      -0.1966
     10  CA       -19.1450   21.5910   27.9210 C.3    39  ILE39       0.1727
     11  C        -18.0900   22.6710   27.8130 C.2    39  ILE39       0.2616
     12  O        -16.8920   22.3760   27.7470 O.2    39  ILE39      -0.2715
     13  CB       -19.8460   21.6100   29.3060 C.3    39  ILE39       0.0290
     14  CG1      -18.8570   21.3530   30.4190 C.3    39  ILE39       0.0022
     15  CG2      -20.9370   20.5490   29.3530 C.3    39  ILE39       0.0023
     16  CD1      -19.4480   21.6080   31.7540 C.3    39  ILE39       0.0001
     17  N        -18.5410   23.9170   27.7700 N.am   40  THR40      -0.1951
     18  CA       -17.6510   25.0460   27.6130 C.3    40  THR40       0.1897
     19  C        -18.0260   26.1990   28.5720 C.2    40  THR40       0.2313
     20  O        -17.2340   27.1030   28.8140 O.2    40  THR40      -0.2863
     21  CB       -17.6980   25.4770   26.1200 C.3    40  THR40       0.1794
     22  OG1      -16.5810   26.3140   25.8070 O.3    40  THR40      -0.2208
     23  CG2      -18.9820   26.1930   25.8220 C.3    40  THR40       0.0378
     24  N        -20.1780   21.8660   23.4810 N.3    55  ASN55      -0.1240
     25  CA       -19.2440   22.1180   22.3850 C.3    55  ASN55       0.1653
     26  C        -19.9170   22.2060   21.0120 C.2    55  ASN55       0.2266
     27  O        -19.3210   22.7260   20.0710 O.2    55  ASN55      -0.2867
     28  CB       -18.1680   21.0320   22.3280 C.3    55  ASN55       0.1155
     29  CG       -17.1140   21.1830   23.4060 C.2    55  ASN55       0.2627
     30  OD1      -16.2810   20.2910   23.5880 O.2    55  ASN55      -0.2716
     31  ND2      -17.1330   22.3100   24.1170 N.am   55  ASN55      -0.0877
     32  N        -16.4860   29.4340   33.2470 N.3   126  ARG126     -0.1231
     33  CA       -15.8670   29.0900   31.9750 C.3   126  ARG126      0.1694
     34  C        -14.9970   27.8660   32.1070 C.2   126  ARG126      0.2592
     35  O        -14.0270   27.8690   32.8540 O.2   126  ARG126     -0.2718
     36  CB       -15.0160   30.2560   31.4950 C.3   126  ARG126      0.0321
     37  CG       -14.2250   29.9840   30.2310 C.3   126  ARG126      0.0489
     38  CD       -14.8740   30.5750   28.9690 C.3   126  ARG126      0.2205
     39  NE       -14.0880   30.2750   27.7620 N.pl3 126  ARG126     -0.0865
     40  CZ       -13.8640   29.0460   27.2920 C.cat 126  ARG126      0.5346
     41  NH1      -14.3650   27.9890   27.9150 N.pl3 126  ARG126      0.1354
     42  NH2      -13.1310   28.8660   26.2010 N.pl3 126  ARG126      0.1354
     43  N        -15.3330   26.8070   31.3830 N.am  127  ILE127     -0.1966
     44  CA       -14.5470   25.5790   31.4550 C.3   127  ILE127      0.1712
     45  C        -13.3250   25.6190   30.5230 C.2   127  ILE127      0.2458
     46  O        -13.4480   25.8070   29.3190 O.2   127  ILE127     -0.2730
     47  CB       -15.4150   24.3580   31.1190 C.3   127  ILE127      0.0289
     48  CG1      -16.6150   24.2780   32.0670 C.3   127  ILE127      0.0022
     49  CG2      -14.5590   23.1040   31.2230 C.3   127  ILE127      0.0023
     50  CD1      -16.2370   24.0740   33.5400 C.3   127  ILE127      0.0001
     51  N        -12.1240   25.4130   31.0830 N.am  128  PRO128     -0.2716
     52  CA       -10.8800   25.4380   30.2930 C.3   128  PRO128      0.1536
     53  C        -10.7320   24.3030   29.2760 C.2   128  PRO128      0.2599
     54  O        -11.3970   23.2750   29.3710 O.2   128  PRO128     -0.2715
     55  CB        -9.7720   25.3630   31.3650 C.3   128  PRO128      0.0310
     56  CG       -10.4930   25.6940   32.6950 C.3   128  PRO128      0.0237
     57  CD       -11.8470   25.0740   32.4910 C.3   128  PRO128      0.0939
     58  N         -9.8660   24.5150   28.2910 N.am  129  SER129     -0.1936
     59  CA        -9.5710   23.5010   27.2820 C.3   129  SER129      0.2055
     60  C         -8.7950   22.4320   28.0470 C.2   129  SER129      0.2643
     61  O         -7.6130   22.5980   28.3370 O.2   129  SER129     -0.2714
     62  CB        -8.6790   24.0890   26.1890 C.3   129  SER129      0.2130
     63  OG        -7.8800   23.0860   25.5880 O.3   129  SER129     -0.2179
     64  N         -9.4450   21.3330   28.3830 N.am  130  LYS130     -0.1963
     65  CA        -8.7630   20.3090   29.1570 C.3   130  LYS130      0.1728
     66  C         -8.4430   19.0540   28.3690 C.2   130  LYS130      0.2616
     67  O         -7.9810   18.0710   28.9390 O.2   130  LYS130     -0.2715
     68  CB        -9.6170   19.9480   30.3800 C.3   130  LYS130      0.0311
     69  CG       -11.1050   19.7100   30.0550 C.3   130  LYS130      0.0038
     70  CD       -11.9670   19.4910   31.3080 C.3   130  LYS130      0.0206
     71  CE       -11.9030   20.6900   32.2580 C.3   130  LYS130      0.1093
     72  NZ       -12.8080   20.5760   33.4570 N.3   130  LYS130     -0.1314
     73  N         -8.6960   19.0740   27.0650 N.am  131  THR131     -0.1951
     74  CA        -8.4290   17.9080   26.2330 C.3   131  THR131      0.1897
     75  C         -7.5170   18.2440   25.0580 C.2   131  THR131      0.2313
     76  O         -7.5590   19.3520   24.5040 O.2   131  THR131     -0.2863
     77  CB        -9.7440   17.2940   25.6860 C.3   131  THR131      0.1794
     78  OG1      -10.5950   16.9260   26.7860 O.3   131  THR131     -0.2208
     79  CG2       -9.4380   16.0600   24.7950 C.3   131  THR131      0.0378
     80  N         -6.4880   17.0970   21.3090 N.3   133  TYR133     -0.1241
     81  CA        -6.8410   16.3210   20.1290 C.3   133  TYR133      0.1605
     82  C         -5.6270   16.4790   19.2070 C.2   133  TYR133      0.2264
     83  O         -5.1280   17.5890   19.0100 O.2   133  TYR133     -0.2867
     84  CB        -8.0960   16.8690   19.4370 C.3   133  TYR133      0.0534
     85  CG        -9.3810   16.8300   20.2520 C.ar  133  TYR133     -0.0201
     86  CD1       -9.7060   17.8690   21.1210 C.ar  133  TYR133     -0.0009
     87  CD2      -10.3000   15.7780   20.1140 C.ar  133  TYR133     -0.0009
     88  CE1      -10.9130   17.8720   21.8270 C.ar  133  TYR133      0.0417
     89  CE2      -11.5150   15.7740   20.8180 C.ar  133  TYR133      0.0417
     90  CZ       -11.8130   16.8240   21.6700 C.ar  133  TYR133      0.1957
     91  OH       -13.0040   16.8350   22.3610 O.3   133  TYR133     -0.2866
     92  N         -6.5340   14.5280   14.0300 N.3   137  PHE137     -0.1227
     93  CA        -7.9770   14.5830   14.3040 C.3   137  PHE137      0.1736
     94  C         -8.6360   15.7830   13.6110 C.2   137  PHE137      0.2595
     95  O         -9.7250   15.6610   13.0370 O.2   137  PHE137     -0.2718
     96  CB        -8.2350   14.6990   15.8100 C.3   137  PHE137      0.0547
     97  CG        -9.6940   14.7860   16.1690 C.ar  137  PHE137     -0.0202
     98  CD1      -10.4420   13.6250   16.3540 C.ar  137  PHE137     -0.0042
     99  CD2      -10.3180   16.0320   16.3260 C.ar  137  PHE137     -0.0042
    100  CE1      -11.7840   13.6910   16.6940 C.ar  137  PHE137     -0.0003
    101  CE2      -11.6690   16.1180   16.6680 C.ar  137  PHE137     -0.0003
    102  CZ       -12.4060   14.9430   16.8550 C.ar  137  PHE137     -0.0000
    103  N         -7.9970   16.9500   13.7030 N.am  138  PHE138     -0.1976
    104  CA        -8.5210   18.1510   13.0590 C.3   138  PHE138      0.1639
    105  C         -8.6450   17.8360   11.5740 C.2   138  PHE138      0.2290
    106  O         -9.6830   18.0950   10.9610 O.2   138  PHE138     -0.2864
    107  CB        -7.5800   19.3620   13.2820 C.3   138  PHE138      0.0560
    108  CG        -7.7250   20.0040   14.6440 C.ar  138  PHE138     -0.0200
    109  CD1       -7.2750   19.3530   15.7900 C.ar  138  PHE138     -0.0042
    110  CD2       -8.4210   21.1980   14.7930 C.ar  138  PHE138     -0.0042
    111  CE1       -7.5240   19.8690   17.0600 C.ar  138  PHE138     -0.0003
    112  CE2       -8.6760   21.7230   16.0600 C.ar  138  PHE138     -0.0003
    113  CZ        -8.2260   21.0490   17.1900 C.ar  138  PHE138     -0.0000
    114  N        -11.6220   15.7050   10.8550 N.3   141  GLN141     -0.1245
    115  CA       -12.9000   16.4190   11.0430 C.3   141  GLN141      0.1566
    116  C        -13.1940   17.4660    9.9560 C.2   141  GLN141      0.2260
    117  O        -14.2440   18.1230    9.9900 O.2   141  GLN141     -0.2867
    118  CB       -12.9450   17.1090   12.4160 C.3   141  GLN141      0.0367
    119  CG       -12.9150   16.1610   13.5850 C.3   141  GLN141      0.0905
    120  CD       -14.0490   15.1700   13.5390 C.2   141  GLN141      0.2608
    121  OE1      -15.2020   15.5120   13.8090 O.2   141  GLN141     -0.2717
    122  NE2      -13.7320   13.9280   13.1780 N.am  141  GLN141     -0.0878
    123  N        -11.1590   20.2070    9.1600 N.3   143  PHE143     -0.1241
    124  CA       -10.8000   21.5440    9.6090 C.3   143  PHE143      0.1605
    125  C        -10.4560   22.4700    8.4360 C.2   143  PHE143      0.2264
    126  O        -10.8340   23.6490    8.4150 O.2   143  PHE143     -0.2867
    127  CB        -9.6120   21.4530   10.5910 C.3   143  PHE143      0.0534
    128  CG        -9.2210   22.7740   11.2060 C.ar  143  PHE143     -0.0203
    129  CD1      -10.0910   23.4390   12.0650 C.ar  143  PHE143     -0.0042
    130  CD2       -8.0130   23.3790   10.8760 C.ar  143  PHE143     -0.0042
    131  CE1       -9.7640   24.6810   12.5780 C.ar  143  PHE143     -0.0003
    132  CE2       -7.6810   24.6260   11.3870 C.ar  143  PHE143     -0.0003
    133  CZ        -8.5590   25.2770   12.2370 C.ar  143  PHE143     -0.0000
    134  N        -14.8150   33.5730   20.9760 N.3   173  THR173     -0.1203
    135  CA       -14.8400   32.7190   22.1530 C.3   173  THR173      0.1994
    136  C        -15.4210   31.3210   21.9020 C.2   173  THR173      0.2618
    137  O        -16.5040   31.1640   21.3280 O.2   173  THR173     -0.2717
    138  CB       -15.6360   33.3860   23.3310 C.3   173  THR173      0.1784
    139  OG1      -15.2280   34.7590   23.4920 O.3   173  THR173     -0.2211
    140  CG2      -15.3640   32.6250   24.6550 C.3   173  THR173      0.0376
    141  N        -14.6730   30.3080   22.3350 N.am  174  GLY174     -0.1942
    142  CA       -15.1040   28.9210   22.2040 C.3   174  GLY174      0.2014
    143  C        -14.9710   28.3030   20.8290 C.2   174  GLY174      0.2640
    144  O        -15.5040   27.2180   20.5750 O.2   174  GLY174     -0.2714
    145  N        -14.2440   28.9830   19.9480 N.am  175  SER175     -0.1935
    146  CA       -14.0490   28.5120   18.5790 C.3   175  SER175      0.2055
    147  C        -13.0170   27.3890   18.4430 C.2   175  SER175      0.2644
    148  O        -13.0210   26.6420   17.4650 O.2   175  SER175     -0.2714
    149  CB       -13.6730   29.6970   17.6900 C.3   175  SER175      0.2130
    150  OG       -12.5120   30.3420   18.1750 O.3   175  SER175     -0.2179
    151  N        -12.1170   27.2820   19.4130 N.am  176  GLY176     -0.1939
    152  CA       -11.1360   26.2210   19.3620 C.3   176  GLY176      0.2014
    153  C         -9.7030   26.6350   19.1270 C.2   176  GLY176      0.2639
    154  O         -8.9180   25.7570   18.7860 O.2   176  GLY176     -0.2714
    155  N         -9.3720   27.9230   19.3140 N.am  177  LYS177     -0.1963
    156  CA        -8.0130   28.4940   19.1170 C.3   177  LYS177      0.1728
    157  C         -6.9450   27.8570   20.0090 C.2   177  LYS177      0.2617
    158  O         -5.8630   27.4870   19.5510 O.2   177  LYS177     -0.2715
    159  CB        -8.0190   30.0140   19.3780 C.3   177  LYS177      0.0311
    160  CG        -9.1270   30.7760   18.6680 C.3   177  LYS177      0.0038
    161  CD        -9.0280   32.2800   18.9160 C.3   177  LYS177      0.0206
    162  CE        -9.2910   32.6900   20.3720 C.3   177  LYS177      0.1093
    163  NZ       -10.6820   32.4820   20.8660 N.3   177  LYS177     -0.1314
    164  N         -7.2530   27.7600   21.2970 N.am  178  THR178     -0.1937
    165  CA        -6.3600   27.1320   22.2670 C.3   178  THR178      0.2028
    166  C         -6.1970   25.6260   21.9010 C.2   178  THR178      0.2642
    167  O         -5.0890   25.0940   21.8790 O.2   178  THR178     -0.2714
    168  CB        -6.9360   27.2500   23.7100 C.3   178  THR178      0.1808
    169  OG1       -7.1810   28.6370   24.0560 O.3   178  THR178     -0.2208
    170  CG2       -5.9710   26.6090   24.7090 C.3   178  THR178      0.0379
    171  N         -7.2970   24.9300   21.6230 N.am  179  THR179     -0.1950
    172  CA        -7.2160   23.5220   21.2470 C.3   179  THR179      0.1897
    173  C         -6.3900   23.3410   19.9710 C.2   179  THR179      0.2313
    174  O         -5.6730   22.3440   19.7960 O.2   179  THR179     -0.2863
    175  CB        -8.5910   22.9750   21.0080 C.3   179  THR179      0.1794
    176  OG1       -9.3510   23.1300   22.2050 O.3   179  THR179     -0.2208
    177  CG2       -8.5240   21.5120   20.6300 C.3   179  THR179      0.0378
    178  N         -3.9000   25.1200   30.6740 N.3   201  GLU201     -0.1245
    179  CA        -4.5940   24.5020   29.5530 C.3   201  GLU201      0.1567
    180  C         -3.6810   23.7600   28.5990 C.2   201  GLU201      0.2260
    181  O         -4.0620   22.7210   28.0570 O.2   201  GLU201     -0.2867
    182  CB        -5.3650   25.5500   28.7730 C.3   201  GLU201      0.0388
    183  CG        -6.5490   26.0700   29.5080 C.3   201  GLU201      0.1160
    184  CD        -7.2820   27.1030   28.7190 C.2   201  GLU201      0.3649
    185  OE1       -6.6170   28.0560   28.2570 O.co2 201  GLU201     -0.2457
    186  OE2       -8.5140   26.9630   28.5640 O.co2 201  GLU201     -0.2457
    187  N         -2.9420   33.3750   20.7410 N.3   262  THR262     -0.1218
    188  CA        -4.3480   33.4410   20.3510 C.3   262  THR262      0.1862
    189  C         -4.8830   34.8320   20.6690 C.2   262  THR262      0.2287
    190  O         -4.4690   35.4810   21.6420 O.2   262  THR262     -0.2866
    191  CB        -5.2460   32.4270   21.0800 C.3   262  THR262      0.1770
    192  OG1       -5.4770   32.8720   22.4190 O.3   262  THR262     -0.2211
    193  CG2       -4.6180   31.0480   21.0850 C.3   262  THR262      0.0375
    194  N         -8.7380   37.4640   20.0280 N.3   264  HIS264     -0.1241
    195  CA       -10.1310   37.5700   19.6000 C.3   264  HIS264      0.1621
    196  C        -10.2190   38.5800   18.4800 C.2   264  HIS264      0.2264
    197  O        -10.1320   39.7790   18.7300 O.2   264  HIS264     -0.2867
    198  CB       -11.0180   38.0780   20.7090 C.3   264  HIS264      0.0745
    199  CG       -11.5250   37.0110   21.6110 C.ar  264  HIS264      0.0817
    200  ND1      -12.3750   37.2810   22.6600 N.ar  264  HIS264     -0.2268
    201  CD2      -11.3040   35.6770   21.6310 C.ar  264  HIS264      0.1154
    202  CE1      -12.6550   36.1550   23.2900 C.ar  264  HIS264      0.1986
    203  NE2      -12.0180   35.1680   22.6860 N.ar  264  HIS264     -0.2212
    204  N        -16.2080   25.8870   14.0620 N.3   309  LYS309     -0.1245
    205  CA       -14.9080   25.2890   14.3500 C.3   309  LYS309      0.1561
    206  C        -14.1340   24.8610   13.1020 C.2   309  LYS309      0.2260
    207  O        -13.5310   23.7900   13.0640 O.2   309  LYS309     -0.2867
    208  CB       -15.0720   24.1110   15.3200 C.3   309  LYS309      0.0271
    209  CG       -15.5900   24.5330   16.7090 C.3   309  LYS309      0.0035
    210  CD       -15.5000   23.4100   17.7380 C.3   309  LYS309      0.0206
    211  CE       -16.0170   23.8670   19.0800 C.3   309  LYS309      0.1093
    212  NZ       -17.4150   24.3330   18.9630 N.3   309  LYS309     -0.1314
@<TRIPOS>BOND
     1   126   125    2
     2   125   124    1
     3   123   124    1
     4   124   127    1
     5   116   117    2
     6   116   115    1
     7   127   128    1
     8   114   115    1
     9   130   128   ar
    10   130   132   ar
    11   106   105    2
    12   115   118    1
    13   128   129   ar
    14   132   133   ar
    15   105   104    1
    16   129   131   ar
    17   133   131   ar
    18   118   119    1
    19    95    94    2
    20   104   107    1
    21   104   103    1
    22   207   206    2
    23   206   205    1
    24   122   120   am
    25   107   108    1
    26   120   119    1
    27   120   121    2
    28    94   103   am
    29    94    93    1
    30    92    93    1
    31   204   205    1
    32    93    96    1
    33   205   208    1
    34   108   110   ar
    35   108   109   ar
    36   110   112   ar
    37   208   209    1
    38   109   111   ar
    39    96    97    1
    40   112   113   ar
    41    97    99   ar
    42    97    98   ar
    43    99   101   ar
    44    98   100   ar
    45   101   102   ar
    46   100   102   ar
    47   209   210    1
    48   111   113   ar
    49   148   147    2
    50   149   150    1
    51   149   146    1
    52   210   211    1
    53   147   146    1
    54   147   151   am
    55   196   197    2
    56   196   195    1
    57   146   145    1
    58   160   161    1
    59   160   159    1
    60   154   153    2
    61   161   162    1
    62   212   211    1
    63    83    82    2
    64   156   155    1
    65   156   159    1
    66   156   157    1
    67   153   155   am
    68   153   152    1
    69    82    81    1
    70   152   151    1
    71    84    81    1
    72    84    85    1
    73   158   157    2
    74   195   194    1
    75   195   198    1
    76   174   173    2
    77   145   143   am
    78   173   172    1
    79   157   164   am
    80    27    26    2
    81    87    85   ar
    82    87    89   ar
    83    81    80    1
    84    85    86   ar
    85   188   189    1
    86   188   187    1
    87   188   191    1
    88   162   163    1
    89   144   143    2
    90   177   175    1
    91   189   190    2
    92   198   199    1
    93    89    90   ar
    94   143   142    1
    95   134   135    1
    96   175   172    1
    97   175   176    1
    98    26    25    1
    99   191   193    1
   100   191   192    1
   101    86    88   ar
   102   172   171    1
   103   164   165    1
   104   137   136    2
   105   199   201   ar
   106   199   200   ar
   107   171   166   am
   108   201   203   ar
   109    90    88   ar
   110    90    91    1
   111   167   166    2
   112   166   165    1
   113   136   135    1
   114   136   141   am
   115   135   138    1
   116   142   141    1
   117   165   168    1
   118    28    25    1
   119    28    29    1
   120    25    24    1
   121   200   202   ar
   122   203   202   ar
   123   138   139    1
   124   138   140    1
   125    29    30    2
   126    29    31   am
   127   168   169    1
   128   168   170    1
   129    76    75    2
   130     8     6   am
   131     6     7    2
   132     6     5    1
   133    79    77    1
   134     5     2    1
   135    75    74    1
   136    63    62    1
   137     4     3    2
   138    77    74    1
   139    77    78    1
   140    22    21    1
   141    23    21    1
   142    21    18    1
   143    62    59    1
   144    42    40    1
   145     2     3    1
   146     2     1    1
   147    74    73    1
   148     3     9   am
   149    73    66   am
   150    59    60    1
   151    59    58    1
   152    40    39    2
   153    40    41    1
   154    18    17    1
   155    18    19    1
   156     9    10    1
   157    12    11    2
   158    39    38    1
   159    17    11   am
   160    11    10    1
   161    10    13    1
   162    60    61    2
   163    60    64   am
   164   181   180    2
   165   185   184   ar
   166    58    53   am
   167    66    67    2
   168    66    65    1
   169    64    65    1
   170   186   184   ar
   171    19    20    2
   172   180   179    1
   173   184   183    1
   174   182   183    1
   175   182   179    1
   176    38    37    1
   177    65    68    1
   178    53    54    2
   179    53    52    1
   180    13    15    1
   181    13    14    1
   182    46    45    2
   183   179   178    1
   184    69    68    1
   185    69    70    1
   186    37    36    1
   187    52    51    1
   188    52    55    1
   189    14    16    1
   190    45    51   am
   191    45    44    1
   192    51    57    1
   193    47    49    1
   194    47    44    1
   195    47    48    1
   196    70    71    1
   197    55    56    1
   198    43    44    1
   199    43    34   am
   200    36    33    1
   201    33    34    1
   202    33    32    1
   203    48    50    1
   204    34    35    2
   205    71    72    1
   206    57    56    1
