@<TRIPOS>MOLECULE
tmp/1g72C00.pdb
 194 187 0 0 0
SMALL
GASTEIGER

@<TRIPOS>ATOM
      1  N         11.8200   -4.3330   35.5980 N.3    55  GLU55      -0.1245
      2  CA        11.4540   -5.2990   36.6240 C.3    55  GLU55       0.1567
      3  C         10.2070   -6.0930   36.2550 C.2    55  GLU55       0.2260
      4  O          9.5970   -5.8570   35.2100 O.2    55  GLU55      -0.2867
      5  CB        11.2800   -4.5780   37.9670 C.3    55  GLU55       0.0388
      6  CG        12.6180   -4.0770   38.5010 C.3    55  GLU55       0.1160
      7  CD        12.5420   -3.3140   39.8110 C.2    55  GLU55       0.3649
      8  OE1       13.6280   -2.9980   40.3420 O.co2  55  GLU55      -0.2457
      9  OE2       11.4330   -3.0270   40.3100 O.co2  55  GLU55      -0.2457
     10  N         12.6450    7.5010   43.8270 N.3   103  CYS103     -0.1221
     11  CA        13.9040    7.2320   44.5080 C.3   103  CYS103      0.1808
     12  C         14.8970    6.3110   43.8730 C.2   103  CYS103      0.2601
     13  O         16.0970    6.5830   43.8310 O.2   103  CYS103     -0.2717
     14  CB        13.6570    6.6100   45.8810 C.3   103  CYS103      0.0970
     15  SG        13.1500    4.8360   45.9050 S.3   103  CYS103     -0.0800
     16  N         14.3730    5.2060   43.3810 N.am  104  CYS104     -0.1956
     17  CA        15.2210    4.1410   42.9360 C.3   104  CYS104      0.1843
     18  C         15.0510    3.6290   41.5000 C.2   104  CYS104      0.2625
     19  O         14.8210    2.4400   41.2820 O.2   104  CYS104     -0.2714
     20  CB        14.9820    3.0520   43.9750 C.3   104  CYS104      0.0997
     21  SG        14.8250    3.6690   45.7200 S.3   104  CYS104     -0.0797
     22  N         15.2150    4.5360   40.5390 N.am  105  ASP105     -0.1971
     23  CA        15.0610    4.2660   39.1040 C.3   105  ASP105      0.1709
     24  C         13.5650    4.2580   38.7850 C.2   105  ASP105      0.2293
     25  O         12.7260    4.0500   39.6690 O.2   105  ASP105     -0.2864
     26  CB        15.7170    2.9390   38.6870 C.3   105  ASP105      0.1436
     27  CG        15.9120    2.8320   37.1720 C.2   105  ASP105      0.3671
     28  OD1       15.8150    3.8710   36.4810 O.co2 105  ASP105     -0.2456
     29  OD2       16.1700    1.7140   36.6700 O.co2 105  ASP105     -0.2456
     30  N         11.3030    2.2770   37.6490 N.3   107  VAL107     -0.1245
     31  CA        10.8430    0.9080   37.4250 C.3   107  VAL107      0.1561
     32  C          9.3450    0.6530   37.6000 C.2   107  VAL107      0.2260
     33  O          8.6190    1.4590   38.1760 O.2   107  VAL107     -0.2867
     34  CB        11.6180   -0.0790   38.3340 C.3   107  VAL107      0.0252
     35  CG1       13.1090   -0.0220   38.0070 C.3   107  VAL107      0.0019
     36  CG2       11.3860    0.2700   39.7980 C.3   107  VAL107      0.0019
     37  N          7.0140   -2.9520   38.4250 N.3   109  ARG109     -0.1245
     38  CA         7.0680   -4.3860   38.6930 C.3   109  ARG109      0.1563
     39  C          6.0260   -5.2670   38.0270 C.2   109  ARG109      0.2260
     40  O          5.9080   -6.4440   38.3660 O.2   109  ARG109     -0.2867
     41  CB         7.0780   -4.6380   40.2020 C.3   109  ARG109      0.0307
     42  CG         8.2020   -3.8820   40.8650 C.3   109  ARG109      0.0489
     43  CD         8.5710   -4.3400   42.2670 C.3   109  ARG109      0.2205
     44  NE         9.6500   -3.4640   42.6890 N.pl3 109  ARG109     -0.0865
     45  CZ         9.4630   -2.2070   43.0720 C.cat 109  ARG109      0.5346
     46  NH1        8.2360   -1.7020   43.1280 N.pl3 109  ARG109      0.1354
     47  NH2       10.5060   -1.4180   43.2820 N.pl3 109  ARG109      0.1354
     48  N          4.9570    1.9790   41.5940 N.3   153  THR153     -0.1218
     49  CA         5.9200    1.0820   40.9660 C.3   153  THR153      0.1862
     50  C          5.5470   -0.3950   41.1130 C.2   153  THR153      0.2287
     51  O          5.8040   -1.1870   40.2060 O.2   153  THR153     -0.2866
     52  CB         7.3450    1.2650   41.5370 C.3   153  THR153      0.1770
     53  OG1        7.3420    0.9400   42.9280 O.3   153  THR153     -0.2211
     54  CG2        7.8280    2.6970   41.3480 C.3   153  THR153      0.0375
     55  N          4.3580    4.5380   46.4810 N.3   168  SER168     -0.1202
     56  CA         5.7600    4.5230   46.8870 C.3   168  SER168      0.2020
     57  C          6.1490    5.9490   47.2880 C.2   168  SER168      0.2619
     58  O          5.4890    6.9080   46.8800 O.2   168  SER168     -0.2717
     59  CB         6.6510    4.0730   45.7210 C.3   168  SER168      0.2103
     60  OG         6.5100    2.6880   45.4550 O.3   168  SER168     -0.2182
     61  N          7.2100    6.0930   48.0830 N.am  169  GLY169     -0.1942
     62  CA         7.6460    7.4260   48.4690 C.3   169  GLY169      0.2014
     63  C          8.0640    7.6870   49.9080 C.2   169  GLY169      0.2639
     64  O          8.0280    8.8380   50.3450 O.2   169  GLY169     -0.2714
     65  N          8.4690    6.6580   50.6480 N.am  170  ALA170     -0.1963
     66  CA         8.8840    6.8690   52.0360 C.3   170  ALA170      0.1728
     67  C         10.1420    7.7430   52.1090 C.2   170  ALA170      0.2616
     68  O         10.3570    8.4470   53.1030 O.2   170  ALA170     -0.2715
     69  CB         9.1220    5.5340   52.7330 C.3   170  ALA170      0.0334
     70  N         10.9720    7.7010   51.0640 N.am  171  GLU171     -0.1977
     71  CA        12.1850    8.5220   51.0240 C.3   171  GLU171      0.1602
     72  C         11.8180    9.9940   50.8790 C.2   171  GLU171      0.2287
     73  O         12.6830   10.8720   50.9360 O.2   171  GLU171     -0.2864
     74  CB        13.0980    8.1160   49.8610 C.3   171  GLU171      0.0415
     75  CG        14.1040    7.0340   50.2100 C.3   171  GLU171      0.1163
     76  CD        13.4430    5.7140   50.5550 C.2   171  GLU171      0.3649
     77  OE1       12.9510    5.0360   49.6230 O.co2 171  GLU171     -0.2457
     78  OE2       13.4110    5.3570   51.7560 O.co2 171  GLU171     -0.2457
     79  N          5.2020    3.0030   53.4910 N.3   235  THR235     -0.1218
     80  CA         4.6850    2.6380   52.1700 C.3   235  THR235      0.1862
     81  C          4.8920    1.1550   51.8750 C.2   235  THR235      0.2287
     82  O          5.8860    0.5650   52.2980 O.2   235  THR235     -0.2866
     83  CB         5.3700    3.4440   51.0440 C.3   235  THR235      0.1770
     84  OG1        6.7890    3.3010   51.1510 O.3   235  THR235     -0.2211
     85  CG2        4.9990    4.9160   51.1290 C.3   235  THR235      0.0375
     86  N          5.3320   -1.2400   48.7850 N.3   237  TRP237     -0.1241
     87  CA         5.5880   -1.2900   47.3520 C.3   237  TRP237      0.1605
     88  C          6.1480   -2.6440   46.9400 C.2   237  TRP237      0.2264
     89  O          6.7140   -2.7910   45.8580 O.2   237  TRP237     -0.2867
     90  CB         6.5810   -0.1850   46.9680 C.3   237  TRP237      0.0550
     91  CG         7.7630   -0.1170   47.8920 C.ar  237  TRP237      0.0003
     92  CD1        7.8230    0.5130   49.1090 C.ar  237  TRP237      0.0946
     93  CD2        9.0250   -0.7790   47.7230 C.ar  237  TRP237      0.0152
     94  NE1        9.0410    0.2770   49.7060 N.ar  237  TRP237     -0.2442
     95  CE2        9.7960   -0.5140   48.8800 C.ar  237  TRP237      0.0810
     96  CE3        9.5760   -1.5750   46.7110 C.ar  237  TRP237      0.0012
     97  CZ2       11.0900   -1.0210   49.0510 C.ar  237  TRP237      0.0191
     98  CZ3       10.8660   -2.0790   46.8830 C.ar  237  TRP237      0.0001
     99  CH2       11.6050   -1.7980   48.0470 C.ar  237  TRP237      0.0015
    100  N          9.6020    1.2480   55.4860 N.3   255  ASN255     -0.1240
    101  CA        10.3990    1.9680   56.4750 C.3   255  ASN255      0.1653
    102  C          9.8220    3.3080   56.9070 C.2   255  ASN255      0.2266
    103  O          9.1290    3.9810   56.1420 O.2   255  ASN255     -0.2867
    104  CB        11.7920    2.2340   55.9170 C.3   255  ASN255      0.1155
    105  CG        11.7560    3.1510   54.7130 C.2   255  ASN255      0.2627
    106  OD1       11.2220    2.7910   53.6640 O.2   255  ASN255     -0.2716
    107  ND2       12.3070    4.3530   54.8600 N.am  255  ASN255     -0.0877
    108  N         15.2880    8.7710   57.2800 N.3   259  TRP259     -0.1241
    109  CA        16.2510    7.7270   57.6210 C.3   259  TRP259      0.1605
    110  C         16.9110    8.0920   58.9500 C.2   259  TRP259      0.2264
    111  O         17.2980    7.2150   59.7250 O.2   259  TRP259     -0.2867
    112  CB        17.3110    7.5970   56.5220 C.3   259  TRP259      0.0550
    113  CG        16.8070    6.9330   55.2640 C.ar  259  TRP259      0.0003
    114  CD1       15.5080    6.8330   54.8490 C.ar  259  TRP259      0.0946
    115  CD2       17.6020    6.3120   54.2460 C.ar  259  TRP259      0.0152
    116  NE1       15.4450    6.1890   53.6340 N.ar  259  TRP259     -0.2442
    117  CE2       16.7150    5.8590   53.2400 C.ar  259  TRP259      0.0810
    118  CE3       18.9780    6.0980   54.0820 C.ar  259  TRP259      0.0012
    119  CZ2       17.1600    5.2020   52.0860 C.ar  259  TRP259      0.0191
    120  CZ3       19.4210    5.4430   52.9320 C.ar  259  TRP259      0.0001
    121  CH2       18.5100    5.0040   51.9490 C.ar  259  TRP259      0.0015
    122  N         16.8940    1.6800   57.3400 N.3   297  ASP297     -0.1239
    123  CA        16.0960    1.6460   56.1170 C.3   297  ASP297      0.1674
    124  C         15.8660    0.2040   55.6510 C.2   297  ASP297      0.2266
    125  O         16.1060   -0.1380   54.4920 O.2   297  ASP297     -0.2867
    126  CB        16.7650    2.4600   55.0000 C.3   297  ASP297      0.1410
    127  CG        16.0120    2.3650   53.6790 C.2   297  ASP297      0.3668
    128  OD1       14.7700    2.5120   53.6800 O.co2 297  ASP297     -0.2456
    129  OD2       16.6620    2.1440   52.6350 O.co2 297  ASP297     -0.2456
    130  N         13.2500   -1.3450   54.8260 N.3   299  ALA299     -0.1245
    131  CA        11.8760   -1.3540   54.3140 C.3   299  ALA299      0.1562
    132  C         11.3390   -2.7820   54.2910 C.2   299  ALA299      0.2260
    133  O         11.8230   -3.6150   53.5320 O.2   299  ALA299     -0.2867
    134  CB        11.8400   -0.7510   52.9170 C.3   299  ALA299      0.0290
    135  N         14.5050   -7.2990   54.6920 N.3   324  ARG324     -0.1245
    136  CA        15.7160   -6.5450   54.3960 C.3   324  ARG324      0.1563
    137  C         16.6930   -6.6500   55.5740 C.2   324  ARG324      0.2260
    138  O         17.9060   -6.6370   55.3790 O.2   324  ARG324     -0.2867
    139  CB        15.3740   -5.0630   54.1640 C.3   324  ARG324      0.0307
    140  CG        14.6230   -4.7690   52.8650 C.3   324  ARG324      0.0489
    141  CD        15.5810   -4.2960   51.7800 C.3   324  ARG324      0.2205
    142  NE        15.9280   -2.8810   51.9280 N.pl3 324  ARG324     -0.0865
    143  CZ        15.1980   -1.8710   51.4600 C.cat 324  ARG324      0.5346
    144  NH1       15.5940   -0.6180   51.6500 N.pl3 324  ARG324      0.1354
    145  NH2       14.0800   -2.1090   50.7860 N.pl3 324  ARG324      0.1354
    146  N         15.9610   -7.9690   48.8500 N.3   387  ASN387     -0.1225
    147  CA        15.1880   -6.8020   48.4290 C.3   387  ASN387      0.1785
    148  C         13.9260   -7.2260   47.6580 C.2   387  ASN387      0.2597
    149  O         13.3190   -8.2550   47.9810 O.2   387  ASN387     -0.2718
    150  CB        16.0830   -5.8620   47.5980 C.3   387  ASN387      0.1169
    151  CG        15.5690   -4.4260   47.5680 C.2   387  ASN387      0.2627
    152  OD1       14.5780   -4.1230   46.9050 O.2   387  ASN387     -0.2716
    153  ND2       16.2470   -3.5330   48.2970 N.am  387  ASN387     -0.0877
    154  N         13.5400   -6.4510   46.6450 N.am  388  GLN388     -0.1979
    155  CA        12.3300   -6.7130   45.8640 C.3   388  GLN388      0.1601
    156  C         12.2450   -8.0200   45.0640 C.2   388  GLN388      0.2287
    157  O         11.2650   -8.2450   44.3510 O.2   388  GLN388     -0.2864
    158  CB        12.0700   -5.5270   44.9200 C.3   388  GLN388      0.0394
    159  CG        13.1440   -5.3130   43.8640 C.3   388  GLN388      0.0908
    160  CD        12.8370   -6.0260   42.5520 C.2   388  GLN388      0.2608
    161  OE1       13.6430   -6.8120   42.0510 O.2   388  GLN388     -0.2717
    162  NE2       11.6740   -5.7440   41.9890 N.am  388  GLN388     -0.0878
    163  N         19.2610   -9.7510   42.6700 N.3   467  TRP467     -0.1241
    164  CA        18.1620   -8.8020   42.8020 C.3   467  TRP467      0.1605
    165  C         16.7640   -9.2230   42.3490 C.2   467  TRP467      0.2264
    166  O         15.7790   -8.8720   42.9970 O.2   467  TRP467     -0.2867
    167  CB        18.5530   -7.5100   42.0790 C.3   467  TRP467      0.0550
    168  CG        17.9230   -6.2780   42.6350 C.ar  467  TRP467      0.0003
    169  CD1       16.8950   -5.5600   42.0950 C.ar  467  TRP467      0.0946
    170  CD2       18.3030   -5.5960   43.8370 C.ar  467  TRP467      0.0152
    171  NE1       16.6120   -4.4660   42.8860 N.ar  467  TRP467     -0.2442
    172  CE2       17.4620   -4.4660   43.9620 C.ar  467  TRP467      0.0810
    173  CE3       19.2760   -5.8310   44.8230 C.ar  467  TRP467      0.0012
    174  CZ2       17.5640   -3.5680   45.0320 C.ar  467  TRP467      0.0191
    175  CZ3       19.3790   -4.9360   45.8910 C.ar  467  TRP467      0.0001
    176  CH2       18.5270   -3.8190   45.9840 C.ar  467  TRP467      0.0015
    177  N         17.0960   -0.3020   38.5310 N.3   530  GLY530     -0.1210
    178  CA        16.7020   -0.4240   39.9210 C.3   530  GLY530      0.1956
    179  C         17.7690    0.2490   40.7670 C.2   530  GLY530      0.2611
    180  O         18.6570    0.9050   40.2290 O.2   530  GLY530     -0.2717
    181  N         17.7040    0.0820   42.0830 N.am  531  TRP531     -0.1976
    182  CA        18.6830    0.7150   42.9580 C.3   531  TRP531      0.1640
    183  C         20.1340    0.3410   42.6180 C.2   531  TRP531      0.2290
    184  O         21.0030    1.2110   42.5490 O.2   531  TRP531     -0.2864
    185  CB        18.3780    0.3680   44.4260 C.3   531  TRP531      0.0576
    186  CG        19.0430    1.2780   45.4310 C.ar  531  TRP531      0.0006
    187  CD1       19.9010    2.3130   45.1680 C.ar  531  TRP531      0.0946
    188  CD2       18.8980    1.2330   46.8590 C.ar  531  TRP531      0.0152
    189  NE1       20.2990    2.9100   46.3430 N.ar  531  TRP531     -0.2442
    190  CE2       19.6990    2.2680   47.3950 C.ar  531  TRP531      0.0810
    191  CE3       18.1700    0.4180   47.7360 C.ar  531  TRP531      0.0012
    192  CZ2       19.7910    2.5110   48.7740 C.ar  531  TRP531      0.0191
    193  CZ3       18.2610    0.6590   49.1100 C.ar  531  TRP531      0.0001
    194  CH2       19.0690    1.7000   49.6120 C.ar  531  TRP531      0.0015
@<TRIPOS>BOND
     1     4     3    2
     2     1     2    1
     3     3     2    1
     4    28    27   ar
     5     2     5    1
     6    29    27   ar
     7    27    26    1
     8    31    32    1
     9    31    30    1
    10    31    34    1
    11    32    33    2
    12     5     6    1
    13    35    34    1
    14    39    40    2
    15    39    38    1
    16    34    36    1
    17    37    38    1
    18     6     7    1
    19   177   178    1
    20    26    23    1
    21    38    41    1
    22    24    23    1
    23    24    25    2
    24    23    22    1
    25     7     9   ar
    26     7     8   ar
    27   178   179    1
    28    41    42    1
    29    51    50    2
    30   180   179    2
    31    22    18   am
    32   179   181   am
    33    42    43    1
    34    49    50    1
    35    49    52    1
    36    49    48    1
    37    19    18    2
    38    54    52    1
    39    18    17    1
    40    52    53    1
    41   162   160   am
    42   161   160    2
    43   167   168    1
    44   167   164    1
    45   181   182    1
    46   169   168   ar
    47   169   171   ar
    48    43    44    1
    49   165   164    1
    50   165   166    2
    51   184   183    2
    52   160   159    1
    53   183   182    1
    54   168   170   ar
    55   163   164    1
    56    44    45    2
    57   171   172   ar
    58    17    16    1
    59    17    20    1
    60   182   185    1
    61    45    46    1
    62    45    47    1
    63    16    12   am
    64    10    11    1
    65    13    12    2
    66   170   172   ar
    67   170   173   ar
    68   159   158    1
    69    12    11    1
    70   172   174   ar
    71    20    21    1
    72   157   156    2
    73   185   186    1
    74    11    14    1
    75   173   175   ar
    76   158   155    1
    77   174   176   ar
    78   156   155    1
    79   187   186   ar
    80   187   189   ar
    81   186   188   ar
    82    60    59    1
    83    21    15    1
    84    59    56    1
    85    89    88    2
    86   155   154    1
    87    14    15    1
    88   175   176   ar
    89   189   190   ar
    90    55    56    1
    91   154   148   am
    92    96    98   ar
    93    96    93   ar
    94   188   190   ar
    95   188   191   ar
    96    58    57    2
    97    98    99   ar
    98    56    57    1
    99   152   151    2
   100    88    87    1
   101    90    87    1
   102    90    91    1
   103    57    61   am
   104    87    86    1
   105   190   192   ar
   106   151   150    1
   107   151   153   am
   108   150   147    1
   109   148   149    2
   110   148   147    1
   111    93    91   ar
   112    93    95   ar
   113   191   193   ar
   114    91    92   ar
   115    99    97   ar
   116    61    62    1
   117   147   146    1
   118    62    63    1
   119   192   194   ar
   120    95    97   ar
   121    95    94   ar
   122    92    94   ar
   123   193   194   ar
   124    77    76   ar
   125    74    75    1
   126    74    71    1
   127    63    64    2
   128    63    65   am
   129    75    76    1
   130    76    78   ar
   131    65    66    1
   132   145   143    1
   133    72    73    2
   134    72    71    1
   135    71    70    1
   136    83    85    1
   137    83    84    1
   138    83    80    1
   139    70    67   am
   140   143   144    1
   141   143   142    2
   142   141   142    1
   143   141   140    1
   144    81    80    1
   145    81    82    2
   146   121   119   ar
   147   121   120   ar
   148    66    67    1
   149    66    69    1
   150   119   117   ar
   151    67    68    2
   152    80    79    1
   153   129   127   ar
   154   140   139    1
   155   134   131    1
   156   120   118   ar
   157   117   116   ar
   158   117   115   ar
   159   133   132    2
   160   116   114   ar
   161   106   105    2
   162   127   128   ar
   163   127   126    1
   164   118   115   ar
   165   139   136    1
   166   115   113   ar
   167   132   131    1
   168   131   130    1
   169   136   135    1
   170   136   137    1
   171   125   124    2
   172   105   107   am
   173   105   104    1
   174   114   113   ar
   175   126   123    1
   176   113   112    1
   177   138   137    2
   178   100   101    1
   179   124   123    1
   180   104   101    1
   181   123   122    1
   182   103   102    2
   183   101   102    1
   184   112   109    1
   185   108   109    1
   186   109   110    1
   187   110   111    2
