@<TRIPOS>MOLECULE
tmp/1g77A01.pdb
 95 92 0 0 0
SMALL
GASTEIGER

@<TRIPOS>ATOM
      1  N         58.2780   20.4900   10.9650 N.3    50  LEU50      -0.1245
      2  CA        59.6750   20.2300   11.2740 C.3    50  LEU50       0.1561
      3  C         60.5340   21.4910   11.3150 C.2    50  LEU50       0.2260
      4  O         60.4790   22.3180   10.3940 O.2    50  LEU50      -0.2867
      5  CB        60.2960   19.2710   10.2510 C.3    50  LEU50       0.0270
      6  CG        59.6700   17.8770   10.1390 C.3    50  LEU50       0.0019
      7  CD1       60.3900   17.1080    9.0580 C.3    50  LEU50       0.0001
      8  CD2       59.7610   17.1450   11.4700 C.3    50  LEU50       0.0001
      9  N         63.6540   23.4060   10.6140 N.3    52  LYS52      -0.1245
     10  CA        64.6670   23.1830    9.5730 C.3    52  LYS52       0.1561
     11  C         65.9270   24.0020    9.7850 C.2    52  LYS52       0.2260
     12  O         66.9580   23.7420    9.1770 O.2    52  LYS52      -0.2867
     13  CB        64.0860   23.4910    8.1890 C.3    52  LYS52       0.0271
     14  CG        63.0490   22.4430    7.7340 C.3    52  LYS52       0.0035
     15  CD        63.7050   21.0550    7.6460 C.3    52  LYS52       0.0206
     16  CE        62.7240   19.9920    7.1340 C.3    52  LYS52       0.1093
     17  NZ        63.4130   18.6810    6.9700 N.3    52  LYS52      -0.1314
     18  N         58.9260   25.3450    7.0600 N.3    61  TYR61      -0.1227
     19  CA        58.3290   25.6680    5.7750 C.3    61  TYR61       0.1736
     20  C         56.9250   25.0790    5.6720 C.2    61  TYR61       0.2596
     21  O         56.6460   24.0180    6.2310 O.2    61  TYR61      -0.2718
     22  CB        59.2050   25.1480    4.6410 C.3    61  TYR61       0.0548
     23  CG        60.5680   25.7650    4.6590 C.ar   61  TYR61      -0.0200
     24  CD1       61.5650   25.2770    5.5060 C.ar   61  TYR61      -0.0009
     25  CD2       60.8550   26.8630    3.8600 C.ar   61  TYR61      -0.0009
     26  CE1       62.8060   25.8710    5.5570 C.ar   61  TYR61       0.0417
     27  CE2       62.1020   27.4660    3.9000 C.ar   61  TYR61       0.0417
     28  CZ        63.0700   26.9720    4.7460 C.ar   61  TYR61       0.1957
     29  OH        64.2970   27.5870    4.7670 O.3    61  TYR61      -0.2866
     30  N         56.0570   25.7760    4.9450 N.am   62  THR62      -0.1953
     31  CA        54.6650   25.3700    4.7970 C.3    62  THR62       0.1897
     32  C         54.0190   25.9930    3.5420 C.2    62  THR62       0.2313
     33  O         54.6320   26.8330    2.8490 O.2    62  THR62      -0.2863
     34  CB        53.8530   25.8010    6.0630 C.3    62  THR62       0.1794
     35  OG1       52.6040   25.1100    6.0910 O.3    62  THR62      -0.2208
     36  CG2       53.5800   27.3050    6.0530 C.3    62  THR62       0.0378
     37  N         66.0800   26.3520    0.1780 N.3   106  TYR106     -0.1241
     38  CA        65.6750   25.1350    0.8570 C.3   106  TYR106      0.1605
     39  C         64.8070   24.2430   -0.0030 C.2   106  TYR106      0.2264
     40  O         64.8840   23.0220    0.0840 O.2   106  TYR106     -0.2867
     41  CB        64.9200   25.4260    2.1520 C.3   106  TYR106      0.0534
     42  CG        64.4200   24.1480    2.7920 C.ar  106  TYR106     -0.0201
     43  CD1       63.1650   23.6150    2.4620 C.ar  106  TYR106     -0.0009
     44  CD2       65.2430   23.4170    3.6520 C.ar  106  TYR106     -0.0009
     45  CE1       62.7520   22.3800    2.9660 C.ar  106  TYR106      0.0417
     46  CE2       64.8430   22.1860    4.1630 C.ar  106  TYR106      0.0417
     47  CZ        63.6020   21.6690    3.8180 C.ar  106  TYR106      0.1957
     48  OH        63.2390   20.4380    4.3200 O.3   106  TYR106     -0.2866
     49  N         65.1480   19.6210   -1.3690 N.3   110  ARG110     -0.1231
     50  CA        64.2460   18.5330   -1.0070 C.3   110  ARG110      0.1679
     51  C         64.1470   17.4550   -2.0760 C.2   110  ARG110      0.2434
     52  O         64.4120   17.7050   -3.2470 O.2   110  ARG110     -0.2733
     53  CB        62.8350   19.0700   -0.7600 C.3   110  ARG110      0.0321
     54  CG        62.7540   20.5620   -0.4150 C.3   110  ARG110      0.0489
     55  CD        61.4250   20.8650    0.2900 C.3   110  ARG110      0.2205
     56  NE        60.2630   20.3550   -0.4170 N.pl3 110  ARG110     -0.0865
     57  CZ        59.0990   20.0770    0.1630 C.cat 110  ARG110      0.5346
     58  NH1       57.9740   20.3300   -0.4830 N.pl3 110  ARG110      0.1354
     59  NH2       59.0530   19.5200    1.3690 N.pl3 110  ARG110      0.1354
     60  N         63.7600   16.2320   -1.6790 N.am  111  PRO111     -0.2729
     61  CA        63.6200   15.1360   -2.6430 C.3   111  PRO111      0.1401
     62  C         62.6200   15.5810   -3.7270 C.2   111  PRO111      0.2269
     63  O         61.5830   16.1810   -3.4130 O.2   111  PRO111     -0.2865
     64  CB        63.0610   13.9980   -1.7890 C.3   111  PRO111      0.0296
     65  CG        63.6390   14.2690   -0.4380 C.3   111  PRO111      0.0237
     66  CD        63.5130   15.7660   -0.3020 C.3   111  PRO111      0.0939
     67  N         59.0390   15.1200   -3.3280 N.3   114  SER114     -0.1217
     68  CA        58.4770   16.0570   -2.3580 C.3   114  SER114      0.1889
     69  C         58.2170   17.4090   -3.0130 C.2   114  SER114      0.2288
     70  O         57.2280   18.0750   -2.7240 O.2   114  SER114     -0.2866
     71  CB        59.4210   16.2320   -1.1730 C.3   114  SER114      0.2089
     72  OG        59.4250   15.0550   -0.3910 O.3   114  SER114     -0.2183
     73  N         46.9370   22.5270    0.5120 N.3   123  GLN123     -0.1245
     74  CA        46.9590   22.3090    1.9550 C.3   123  GLN123      0.1566
     75  C         45.8410   22.9490    2.7820 C.2   123  GLN123      0.2260
     76  O         45.6170   24.1760    2.7210 O.2   123  GLN123     -0.2867
     77  CB        48.3100   22.7560    2.4910 C.3   123  GLN123      0.0367
     78  CG        48.6240   22.2630    3.9090 C.3   123  GLN123      0.0905
     79  CD        50.0330   22.6180    4.3160 C.2   123  GLN123      0.2608
     80  OE1       50.3560   23.7910    4.4910 O.2   123  GLN123     -0.2717
     81  NE2       50.8870   21.6100    4.4460 N.am  123  GLN123     -0.0878
     82  N         54.2920   28.4020   -1.9410 N.3   155  TRP155     -0.1241
     83  CA        55.1200   27.6830   -0.9960 C.3   155  TRP155      0.1605
     84  C         56.0730   28.6400   -0.3070 C.2   155  TRP155      0.2264
     85  O         56.6800   29.4870   -0.9520 O.2   155  TRP155     -0.2867
     86  CB        55.8910   26.5620   -1.6940 C.3   155  TRP155      0.0550
     87  CG        56.0260   25.3610   -0.7980 C.ar  155  TRP155      0.0003
     88  CD1       55.0270   24.4910   -0.4250 C.ar  155  TRP155      0.0946
     89  CD2       57.1960   24.9550   -0.0850 C.ar  155  TRP155      0.0152
     90  NE1       55.5090   23.5750    0.4790 N.ar  155  TRP155     -0.2442
     91  CE2       56.8380   23.8330    0.7020 C.ar  155  TRP155      0.0810
     92  CE3       58.5150   25.4220   -0.0390 C.ar  155  TRP155      0.0012
     93  CZ2       57.7530   23.1810    1.5330 C.ar  155  TRP155      0.0191
     94  CZ3       59.4230   24.7710    0.7860 C.ar  155  TRP155      0.0001
     95  CH2       59.0370   23.6590    1.5560 C.ar  155  TRP155      0.0015
@<TRIPOS>BOND
     1    62    63    2
     2    62    61    1
     3    67    68    1
     4    52    51    2
     5    69    70    2
     6    69    68    1
     7    61    64    1
     8    61    60    1
     9    68    71    1
    10    51    60   am
    11    51    50    1
    12    82    83    1
    13    64    65    1
    14    86    83    1
    15    86    87    1
    16    60    66    1
    17    49    50    1
    18    71    72    1
    19    50    53    1
    20    83    84    1
    21    85    84    2
    22    87    88   ar
    23    87    89   ar
    24    53    54    1
    25    58    57    1
    26    65    66    1
    27    88    90   ar
    28    56    57    2
    29    56    55    1
    30    54    55    1
    31    89    92   ar
    32    89    91   ar
    33    92    94   ar
    34    39    40    2
    35    39    38    1
    36    57    59    1
    37    37    38    1
    38    90    91   ar
    39    73    74    1
    40    91    93   ar
    41    94    95   ar
    42    38    41    1
    43    93    95   ar
    44    74    77    1
    45    74    75    1
    46    41    42    1
    47    43    42   ar
    48    43    45   ar
    49    77    78    1
    50    76    75    2
    51    42    44   ar
    52    33    32    2
    53    45    47   ar
    54    32    31    1
    55    44    46   ar
    56    47    46   ar
    57    47    48    1
    58    25    27   ar
    59    25    23   ar
    60    27    28   ar
    61    78    79    1
    62    79    81   am
    63    79    80    2
    64    22    23    1
    65    22    19    1
    66    23    24   ar
    67    28    29    1
    68    28    26   ar
    69    31    30    1
    70    31    34    1
    71    30    20   am
    72    24    26   ar
    73    20    19    1
    74    20    21    2
    75    19    18    1
    76    36    34    1
    77    34    35    1
    78    17    16    1
    79    16    15    1
    80    15    14    1
    81    14    13    1
    82    13    10    1
    83     7     6    1
    84    12    11    2
    85    10    11    1
    86    10     9    1
    87     6     5    1
    88     6     8    1
    89     5     2    1
    90     4     3    2
    91     1     2    1
    92     2     3    1
