@<TRIPOS>MOLECULE
tmp/1g7fA00.pdb
 170 162 0 0 0
SMALL
GASTEIGER

@<TRIPOS>ATOM
      1  N         20.6980   16.9080   -1.9260 N.3    23  ARG23      -0.1245
      2  CA        19.2390   16.8640   -1.9460 C.3    23  ARG23       0.1563
      3  C         18.7190   16.6440   -3.3770 C.2    23  ARG23       0.2260
      4  O         17.8020   15.8490   -3.6000 O.2    23  ARG23      -0.2867
      5  CB        18.6810   18.2100   -1.4000 C.3    23  ARG23       0.0307
      6  CG        18.7250   18.2950    0.1410 C.3    23  ARG23       0.0489
      7  CD        17.7260   19.3600    0.6270 C.3    23  ARG23       0.2205
      8  NE        17.4710   19.2570    2.0610 N.pl3  23  ARG23      -0.0865
      9  CZ        16.4670   19.8590    2.6960 C.cat  23  ARG23       0.5346
     10  NH1       15.6120   20.6230    2.0090 N.pl3  23  ARG23       0.1354
     11  NH2       16.3110   19.7000    4.0050 N.pl3  23  ARG23       0.1354
     12  N          4.2060   11.0360   11.7860 N.3    44  ARG44      -0.1231
     13  CA         4.3770   12.2400   12.6170 C.3    44  ARG44       0.1694
     14  C          4.3900   13.5180   11.7400 C.2    44  ARG44       0.2592
     15  O          3.8560   14.5700   12.1200 O.2    44  ARG44      -0.2718
     16  CB         5.6600   12.1460   13.4420 C.3    44  ARG44       0.0321
     17  CG         5.9730   13.4470   14.2360 C.3    44  ARG44       0.0489
     18  CD         7.1640   13.2350   15.1680 C.3    44  ARG44       0.2205
     19  NE         6.8680   12.2630   16.2470 N.pl3  44  ARG44      -0.0865
     20  CZ         6.2140   12.5890   17.3630 C.cat  44  ARG44       0.5346
     21  NH1        5.7730   13.8540   17.5870 N.pl3  44  ARG44       0.1354
     22  NH2        6.0010   11.6410   18.2870 N.pl3  44  ARG44       0.1354
     23  N          5.0070   13.4170   10.5660 N.am   45  TYR45      -0.1962
     24  CA         5.1480   14.5270    9.6250 C.3    45  TYR45       0.1771
     25  C          4.7090   14.0770    8.2280 C.2    45  TYR45       0.2619
     26  O          5.1130   13.0020    7.7340 O.2    45  TYR45      -0.2715
     27  CB         6.6190   14.9810    9.5560 C.3    45  TYR45       0.0574
     28  CG         7.2120   15.3940   10.8870 C.ar   45  TYR45      -0.0198
     29  CD1        6.8240   16.5890   11.5190 C.ar   45  TYR45      -0.0009
     30  CD2        8.1830   14.5870   11.4990 C.ar   45  TYR45      -0.0009
     31  CE1        7.3540   16.9830   12.7340 C.ar   45  TYR45       0.0417
     32  CE2        8.7300   14.9770   12.7140 C.ar   45  TYR45       0.0417
     33  CZ         8.3080   16.1670   13.3240 C.ar   45  TYR45       0.1957
     34  OH         8.8620   16.5500   14.5290 O.3    45  TYR45      -0.2866
     35  N          3.8910   14.9190    7.5780 N.am   46  ARG46      -0.1963
     36  CA         3.4100   14.5580    6.2340 C.3    46  ARG46       0.1729
     37  C          4.4610   14.5650    5.1570 C.2    46  ARG46       0.2616
     38  O          4.2520   13.9510    4.0950 O.2    46  ARG46      -0.2715
     39  CB         2.2610   15.5320    5.8560 C.3    46  ARG46       0.0348
     40  CG         1.0310   15.2220    6.7200 C.3    46  ARG46       0.0492
     41  CD        -0.0320   16.3060    6.5070 C.3    46  ARG46       0.2205
     42  NE         0.3740   17.6170    7.0690 N.pl3  46  ARG46      -0.0865
     43  CZ        -0.2060   18.7980    6.7550 C.cat  46  ARG46       0.5346
     44  NH1       -1.2070   18.8120    5.8830 N.pl3  46  ARG46       0.1354
     45  NH2        0.2250   19.9410    7.3100 N.pl3  46  ARG46       0.1354
     46  N          5.5800   15.2460    5.3700 N.am   47  ASP47      -0.1957
     47  CA         6.6400   15.3310    4.4080 C.3    47  ASP47       0.1840
     48  C          7.7980   14.3710    4.7030 C.2    47  ASP47       0.2621
     49  O          8.8360   14.4800    4.0510 O.2    47  ASP47      -0.2715
     50  CB         7.1520   16.7830    4.2560 C.3    47  ASP47       0.1450
     51  CG         7.6160   17.4130    5.5630 C.2    47  ASP47       0.3671
     52  OD1        7.2070   16.9480    6.6540 O.co2  47  ASP47      -0.2456
     53  OD2        8.3880   18.4040    5.4580 O.co2  47  ASP47      -0.2456
     54  N          7.6330   13.4590    5.6790 N.am   48  VAL48      -0.1977
     55  CA         8.7150   12.4880    5.9600 C.3    48  VAL48       0.1596
     56  C          8.0870   11.0710    5.9220 C.2    48  VAL48       0.2287
     57  O          7.3630   10.6860    6.8400 O.2    48  VAL48      -0.2864
     58  CB         9.4230   12.7280    7.2890 C.3    48  VAL48       0.0276
     59  CG1       10.4900   11.6090    7.4870 C.3    48  VAL48       0.0022
     60  CG2       10.1130   14.1190    7.3280 C.3    48  VAL48       0.0022
     61  N         16.9680   12.3270   20.5940 N.3   110  ASN110     -0.1240
     62  CA        16.2570   13.5670   20.9530 C.3   110  ASN110      0.1653
     63  C         15.6070   13.4220   22.3390 C.2   110  ASN110      0.2266
     64  O         15.7790   12.3790   22.9970 O.2   110  ASN110     -0.2867
     65  CB        15.2310   13.9110   19.8950 C.3   110  ASN110      0.1155
     66  CG        14.0640   12.9750   19.7670 C.2   110  ASN110      0.2627
     67  OD1       13.0090   13.3970   19.2550 O.2   110  ASN110     -0.2716
     68  ND2       14.1750   11.7060   20.1930 N.am  110  ASN110     -0.0877
     69  N         11.2920   19.4100   23.2200 N.3   114  GLU114     -0.1245
     70  CA        12.4190   20.2880   22.8910 C.3   114  GLU114      0.1567
     71  C         11.8760   21.7040   22.5550 C.2   114  GLU114      0.2260
     72  O         10.9680   21.8530   21.7390 O.2   114  GLU114     -0.2867
     73  CB        13.2500   19.7280   21.7360 C.3   114  GLU114      0.0388
     74  CG        13.9120   18.3730   22.0490 C.3   114  GLU114      0.1160
     75  CD        14.6910   17.7690   20.8950 C.2   114  GLU114      0.3649
     76  OE1       15.5490   16.8970   21.1640 O.co2 114  GLU114     -0.2457
     77  OE2       14.4510   18.1680   19.7300 O.co2 114  GLU114     -0.2457
     78  N          8.2970   16.1600   20.5690 N.3   119  LYS119     -0.1245
     79  CA         9.0480   15.6130   19.4530 C.3   119  LYS119      0.1561
     80  C          8.9890   14.0600   19.3640 C.2   119  LYS119      0.2260
     81  O          9.2990   13.4600   18.3230 O.2   119  LYS119     -0.2867
     82  CB        10.5150   16.0290   19.6630 C.3   119  LYS119      0.0271
     83  CG        10.7570   17.5620   19.6260 C.3   119  LYS119      0.0035
     84  CD        10.4070   18.1080   18.2240 C.3   119  LYS119      0.0206
     85  CE        10.1300   19.6340   18.3010 C.3   119  LYS119      0.1093
     86  NZ         9.5540   20.1670   17.0240 N.3   119  LYS119     -0.1314
     87  N         21.4700   16.7540   22.5540 N.3   178  TRP178     -0.1241
     88  CA        21.5740   17.4270   21.2350 C.3   178  TRP178      0.1605
     89  C         21.0500   18.8850   21.5170 C.2   178  TRP178      0.2264
     90  O         20.0590   19.0250   22.2390 O.2   178  TRP178     -0.2867
     91  CB        20.7870   16.7790   20.1160 C.3   178  TRP178      0.0550
     92  CG        21.6290   16.1420   19.0460 C.ar  178  TRP178      0.0003
     93  CD1       22.3230   14.9450   19.1990 C.ar  178  TRP178      0.0946
     94  CD2       21.9000   16.5900   17.7200 C.ar  178  TRP178      0.0152
     95  NE1       23.0020   14.6300   18.0570 N.ar  178  TRP178     -0.2442
     96  CE2       22.7590   15.6230   17.1280 C.ar  178  TRP178      0.0810
     97  CE3       21.5020   17.7130   16.9540 C.ar  178  TRP178      0.0012
     98  CZ2       23.2380   15.7320   15.8180 C.ar  178  TRP178      0.0191
     99  CZ3       21.9770   17.8190   15.6550 C.ar  178  TRP178      0.0001
    100  CH2       22.8230   16.8390   15.1050 C.ar  178  TRP178      0.0015
    101  N         14.9360    9.9280   16.0690 N.3   214  CYS214     -0.1221
    102  CA        15.0110   11.3260   16.5590 C.3   214  CYS214      0.1808
    103  C         13.5560   11.7650   16.4480 C.2   214  CYS214      0.2602
    104  O         12.7150   10.9790   16.9520 O.2   214  CYS214     -0.2717
    105  CB        15.9890   12.2010   15.8120 C.3   214  CYS214      0.0970
    106  SG        16.0190   11.9730   14.0120 S.3   214  CYS214     -0.0800
    107  N         13.2350   12.8860   15.8190 N.am  215  SER215     -0.1938
    108  CA        11.8080   13.2090   15.7070 C.3   215  SER215      0.2055
    109  C         11.2880   12.6640   14.3680 C.2   215  SER215      0.2642
    110  O         10.3070   11.9000   14.3360 O.2   215  SER215     -0.2714
    111  CB        11.5590   14.7340   15.8570 C.3   215  SER215      0.2130
    112  OG        10.1560   14.8980   16.0360 O.3   215  SER215     -0.2179
    113  N         11.9290   13.0400   13.2590 N.am  216  ALA216     -0.1977
    114  CA        11.5120   12.5660   11.9340 C.3   216  ALA216      0.1597
    115  C         12.2480   11.2690   11.5380 C.2   216  ALA216      0.2287
    116  O         11.8540   10.5820   10.5950 O.2   216  ALA216     -0.2864
    117  CB        11.7700   13.6540   10.8640 C.3   216  ALA216      0.0319
    118  N         15.3440   11.2100   10.3650 N.3   218  ILE218     -0.1231
    119  CA        16.1400   11.4220    9.1530 C.3   218  ILE218      0.1692
    120  C         17.3610   12.3030    9.3700 C.2   218  ILE218      0.2593
    121  O         18.3960   12.0520    8.7230 O.2   218  ILE218     -0.2718
    122  CB        15.3380   11.9900    7.9630 C.3   218  ILE218      0.0266
    123  CG1       14.7530   13.4060    8.2680 C.3   218  ILE218      0.0019
    124  CG2       14.2440   11.0130    7.4840 C.3   218  ILE218      0.0020
    125  CD1       14.0370   14.0450    7.0730 C.3   218  ILE218      0.0001
    126  N         17.2910   13.3310   10.2240 N.am  219  GLY219     -0.1942
    127  CA        18.3970   14.2650   10.4460 C.3   219  GLY219      0.2014
    128  C         19.4020   13.7370   11.4420 C.2   219  GLY219      0.2638
    129  O         20.4520   13.2130   11.0570 O.2   219  GLY219     -0.2714
    130  N         19.1100   13.8750   12.7520 N.am  220  ARG220     -0.1977
    131  CA        20.0640   13.3480   13.7380 C.3   220  ARG220      0.1597
    132  C         20.2710   11.8250   13.5090 C.2   220  ARG220      0.2287
    133  O         21.3940   11.3400   13.5440 O.2   220  ARG220     -0.2864
    134  CB        19.5410   13.5900   15.1640 C.3   220  ARG220      0.0334
    135  CG        19.3940   15.1050   15.4570 C.3   220  ARG220      0.0492
    136  CD        18.8310   15.2860   16.8850 C.3   220  ARG220      0.2205
    137  NE        17.9230   16.4450   16.8940 N.pl3 220  ARG220     -0.0865
    138  CZ        17.2250   16.8550   17.9550 C.cat 220  ARG220      0.5346
    139  NH1       17.3190   16.2150   19.1170 N.pl3 220  ARG220      0.1354
    140  NH2       16.4440   17.9420   17.8220 N.pl3 220  ARG220      0.1354
    141  N         14.2430    8.6750    2.5950 N.3   257  MET257     -0.1230
    142  CA        14.4590   10.0660    2.1120 C.3   257  MET257      0.1702
    143  C         14.9840   11.0190    3.1810 C.2   257  MET257      0.2592
    144  O         14.8070   10.7940    4.3890 O.2   257  MET257     -0.2718
    145  CB        13.0760   10.6160    1.6470 C.3   257  MET257      0.0401
    146  CG        12.1090   10.6950    2.8370 C.3   257  MET257      0.0596
    147  SD        10.6710   11.7330    2.4620 S.3   257  MET257     -0.1393
    148  CE        10.0240   10.7870    1.0500 C.3   257  MET257      0.0692
    149  N         15.6910   12.0850    2.7450 N.am  258  GLY258     -0.1957
    150  CA        16.1950   13.1710    3.5440 C.3   258  GLY258      0.1869
    151  C         17.1630   12.9760    4.6550 C.2   258  GLY258      0.2309
    152  O         17.2930   13.8570    5.5430 O.2   258  GLY258     -0.2863
    153  N         19.3920   16.3920    7.6200 N.3   261  GLN261     -0.1245
    154  CA        18.4050   17.4680    7.3970 C.3   261  GLN261      0.1566
    155  C         18.9130   18.8860    7.1290 C.2   261  GLN261      0.2260
    156  O         18.1360   19.7200    6.5760 O.2   261  GLN261     -0.2867
    157  CB        17.5170   17.4800    8.6610 C.3   261  GLN261      0.0367
    158  CG        16.4740   18.5840    8.7520 C.3   261  GLN261      0.0905
    159  CD        15.4440   18.5630    7.6500 C.2   261  GLN261      0.2608
    160  OE1       14.8490   19.6250    7.3280 O.2   261  GLN261     -0.2717
    161  NE2       15.2000   17.3880    7.0480 N.am  261  GLN261     -0.0878
    162  N         24.2880   19.7400    9.7010 N.3   265  GLN265     -0.1245
    163  CA        24.3830   18.2850   10.0820 C.3   265  GLN265      0.1566
    164  C         25.3390   17.5600    9.1350 C.2   265  GLN265      0.2260
    165  O         26.0390   16.6190    9.5480 O.2   265  GLN265     -0.2867
    166  CB        23.0190   17.6070   10.0630 C.3   265  GLN265      0.0367
    167  CG        22.1370   18.0200   11.2350 C.3   265  GLN265      0.0905
    168  CD        20.8150   17.2710   11.2090 C.2   265  GLN265      0.2608
    169  OE1       20.5130   16.5690   10.2290 O.2   265  GLN265     -0.2717
    170  NE2       20.0370   17.4060   12.2760 N.am  265  GLN265     -0.0878
@<TRIPOS>BOND
     1     4     3    2
     2     3     2    1
     3     2     1    1
     4     2     5    1
     5     5     6    1
     6     6     7    1
     7     7     8    1
     8   148   147    1
     9   145   142    1
    10   145   146    1
    11    10     9    1
    12     8     9    2
    13   142   141    1
    14   142   143    1
    15   147   146    1
    16     9    11    1
    17   149   143   am
    18   149   150    1
    19   143   144    2
    20   150   151    1
    21    49    48    2
    22    38    37    2
    23    50    47    1
    24    50    51    1
    25    47    48    1
    26    47    46    1
    27   151   152    2
    28    48    54   am
    29    37    46   am
    30    37    36    1
    31    53    51   ar
    32    51    52   ar
    33    54    55    1
    34    39    36    1
    35    39    40    1
    36    44    43    1
    37    56    55    1
    38    56    57    2
    39    55    58    1
    40    36    35    1
    41    41    40    1
    42    41    42    1
    43   156   155    2
    44    43    42    2
    45    43    45    1
    46   161   159   am
    47   125   123    1
    48   155   154    1
    49    58    60    1
    50    58    59    1
    51   160   159    2
    52   154   153    1
    53   154   157    1
    54   124   122    1
    55    35    25   am
    56   159   158    1
    57    26    25    2
    58   122   123    1
    59   122   119    1
    60    25    24    1
    61   157   158    1
    62   121   120    2
    63   164   165    2
    64   164   163    1
    65   119   120    1
    66   119   118    1
    67   120   126   am
    68    27    24    1
    69    27    28    1
    70    24    23    1
    71   162   163    1
    72   166   163    1
    73   166   167    1
    74   126   127    1
    75   169   168    2
    76   127   128    1
    77    23    14   am
    78   116   115    2
    79   117   114    1
    80    28    30   ar
    81    28    29   ar
    82   129   128    2
    83   168   167    1
    84   168   170   am
    85   128   130   am
    86    30    32   ar
    87    29    31   ar
    88   115   114    1
    89    14    15    2
    90    14    13    1
    91    12    13    1
    92   114   113    1
    93    13    16    1
    94    32    33   ar
    95    31    33   ar
    96   130   131    1
    97   113   109   am
    98    33    34    1
    99    16    17    1
   100   132   133    2
   101   132   131    1
   102   131   134    1
   103   106   105    1
   104    17    18    1
   105   110   109    2
   106   109   108    1
   107   100    99   ar
   108   100    98   ar
   109   134   135    1
   110    18    19    1
   111   135   136    1
   112    99    97   ar
   113   108   107    1
   114   108   111    1
   115   105   102    1
   116    98    96   ar
   117   107   103   am
   118   111   112    1
   119   101   102    1
   120    19    20    2
   121   103   102    1
   122   103   104    2
   123   136   137    1
   124   137   138    2
   125    97    94   ar
   126    86    85    1
   127    96    94   ar
   128    96    95   ar
   129    20    21    1
   130    20    22    1
   131    94    92   ar
   132   140   138    1
   133   138   139    1
   134    95    93   ar
   135    84    85    1
   136    84    83    1
   137    81    80    2
   138    92    93   ar
   139    92    91    1
   140    67    66    2
   141    80    79    1
   142    79    82    1
   143    79    78    1
   144    83    82    1
   145    77    75   ar
   146    66    65    1
   147    66    68   am
   148    65    62    1
   149    91    88    1
   150    61    62    1
   151    75    76   ar
   152    75    74    1
   153    62    63    1
   154    88    89    1
   155    88    87    1
   156    89    90    2
   157    73    74    1
   158    73    70    1
   159    72    71    2
   160    63    64    2
   161    71    70    1
   162    70    69    1
