@<TRIPOS>MOLECULE
tmp/1g7gA00.pdb
 175 167 0 0 0
SMALL
GASTEIGER

@<TRIPOS>ATOM
      1  N         21.2020   16.3970   -1.7260 N.3    23  ARG23      -0.1245
      2  CA        19.7390   16.3770   -1.7340 C.3    23  ARG23       0.1563
      3  C         19.2390   16.2440   -3.1820 C.2    23  ARG23       0.2260
      4  O         18.3520   15.4820   -3.5390 O.2    23  ARG23      -0.2867
      5  CB        19.1190   17.6930   -1.2180 C.3    23  ARG23       0.0307
      6  CG        19.1590   17.8910    0.2690 C.3    23  ARG23       0.0489
      7  CD        18.4900   19.2370    0.6730 C.3    23  ARG23       0.2205
      8  NE        18.0810   19.0370    2.1200 N.pl3  23  ARG23      -0.0865
      9  CZ        17.5760   20.0300    2.8470 C.cat  23  ARG23       0.5346
     10  NH1       17.4710   21.1960    2.2060 N.pl3  23  ARG23       0.1354
     11  NH2       17.1970   19.8760    4.1320 N.pl3  23  ARG23       0.1354
     12  N         -2.6590    7.9700    8.1090 N.3    40  LYS40      -0.1245
     13  CA        -2.2610    9.3540    8.5490 C.3    40  LYS40       0.1561
     14  C         -1.9840    9.4020   10.0420 C.2    40  LYS40       0.2260
     15  O         -1.0860   10.1230   10.5460 O.2    40  LYS40      -0.2867
     16  CB        -3.3920   10.3020    8.1280 C.3    40  LYS40       0.0271
     17  CG        -3.0910   11.7620    8.4590 C.3    40  LYS40       0.0035
     18  CD        -4.1260   12.7160    7.9050 C.3    40  LYS40       0.0206
     19  CE        -5.2180   13.1310    8.8700 C.3    40  LYS40       0.1093
     20  NZ        -5.1810   14.5810    9.2280 N.3    40  LYS40      -0.1314
     21  N          1.7700    8.5040   11.1350 N.3    43  ASN43      -0.1225
     22  CA         2.8360    9.3510   10.7240 C.3    43  ASN43       0.1785
     23  C          3.0100   10.5840   11.5870 C.2    43  ASN43       0.2597
     24  O          2.0370   11.3200   11.7530 O.2    43  ASN43      -0.2718
     25  CB         2.6830    9.7150    9.2140 C.3    43  ASN43       0.1169
     26  CG         2.8760    8.5270    8.3120 C.2    43  ASN43       0.2627
     27  OD1        3.7410    7.6490    8.5080 O.2    43  ASN43      -0.2716
     28  ND2        2.0780    8.4030    7.2680 N.am   43  ASN43      -0.0877
     29  N          4.1910   10.8320   12.1320 N.am   44  ARG44      -0.1966
     30  CA         4.3930   12.0220   12.9500 C.3    44  ARG44       0.1729
     31  C          4.4400   13.2310   12.0210 C.2    44  ARG44       0.2616
     32  O          4.0210   14.3360   12.3470 O.2    44  ARG44      -0.2715
     33  CB         5.7250   11.9680   13.7420 C.3    44  ARG44       0.0348
     34  CG         6.0200   13.0900   14.7300 C.3    44  ARG44       0.0492
     35  CD         7.1850   12.8050   15.7070 C.3    44  ARG44       0.2205
     36  NE         6.7310   11.8680   16.7600 N.pl3  44  ARG44      -0.0865
     37  CZ         6.0290   12.2420   17.8220 C.cat  44  ARG44       0.5346
     38  NH1        5.7350   13.5400   17.9730 N.pl3  44  ARG44       0.1354
     39  NH2        5.5570   11.3770   18.7370 N.pl3  44  ARG44       0.1354
     40  N          5.0950   13.0760   10.8580 N.am   45  TYR45      -0.1960
     41  CA         5.1840   14.2800   10.0110 C.3    45  TYR45       0.1771
     42  C          4.6660   13.9590    8.6030 C.2    45  TYR45       0.2619
     43  O          4.9780   12.8720    8.0730 O.2    45  TYR45      -0.2715
     44  CB         6.6100   14.7770    9.9610 C.3    45  TYR45       0.0574
     45  CG         7.2140   15.2150   11.2760 C.ar   45  TYR45      -0.0198
     46  CD1        6.7860   16.3930   11.8800 C.ar   45  TYR45      -0.0009
     47  CD2        8.1660   14.4290   11.9090 C.ar   45  TYR45      -0.0009
     48  CE1        7.3620   16.8020   13.0930 C.ar   45  TYR45       0.0417
     49  CE2        8.7240   14.8250   13.1180 C.ar   45  TYR45       0.0417
     50  CZ         8.3020   16.0150   13.7010 C.ar   45  TYR45       0.1957
     51  OH         8.8420   16.4110   14.9030 O.3    45  TYR45      -0.2866
     52  N          3.9710   14.9350    8.0170 N.am   46  ARG46      -0.1963
     53  CA         3.3990   14.7380    6.7030 C.3    46  ARG46       0.1729
     54  C          4.4160   14.6880    5.5690 C.2    46  ARG46       0.2616
     55  O          4.0710   14.1630    4.5140 O.2    46  ARG46      -0.2715
     56  CB         2.3900   15.8560    6.3570 C.3    46  ARG46       0.0348
     57  CG         1.0520   15.7270    7.1420 C.3    46  ARG46       0.0492
     58  CD         0.5350   17.1420    7.2340 C.3    46  ARG46       0.2205
     59  NE        -0.7160   17.4070    7.8820 N.pl3  46  ARG46      -0.0865
     60  CZ        -1.5630   18.3940    7.5460 C.cat  46  ARG46       0.5346
     61  NH1       -1.2720   19.2070    6.5340 N.pl3  46  ARG46       0.1354
     62  NH2       -2.6850   18.5190    8.2480 N.pl3  46  ARG46       0.1354
     63  N          5.5960   15.2440    5.8010 N.am   47  ASP47      -0.1957
     64  CA         6.6320   15.2690    4.7910 C.3    47  ASP47       0.1840
     65  C          7.7310   14.2780    5.1420 C.2    47  ASP47       0.2621
     66  O          8.8310   14.3720    4.6080 O.2    47  ASP47      -0.2715
     67  CB         7.1610   16.6840    4.5650 C.3    47  ASP47       0.1450
     68  CG         7.5760   17.3930    5.8540 C.2    47  ASP47       0.3671
     69  OD1        7.5220   16.8450    6.9530 O.co2  47  ASP47      -0.2456
     70  OD2        7.9820   18.5770    5.8330 O.co2  47  ASP47      -0.2456
     71  N          7.4610   13.2760    6.0350 N.am   48  VAL48      -0.1977
     72  CA         8.5910   12.3370    6.2850 C.3    48  VAL48       0.1596
     73  C          8.0300   10.9200    6.3330 C.2    48  VAL48       0.2287
     74  O          7.3640   10.4830    7.2940 O.2    48  VAL48      -0.2864
     75  CB         9.3630   12.6000    7.5700 C.3    48  VAL48       0.0276
     76  CG1       10.4670   11.5540    7.7400 C.3    48  VAL48       0.0022
     77  CG2        9.9010   14.0200    7.6640 C.3    48  VAL48       0.0022
     78  N          8.1220   16.1260   20.7210 N.3   119  LYS119     -0.1245
     79  CA         8.7800   15.4170   19.6420 C.3   119  LYS119      0.1561
     80  C          8.6280   13.9180   19.6000 C.2   119  LYS119      0.2260
     81  O          8.9610   13.3210   18.5580 O.2   119  LYS119     -0.2867
     82  CB        10.3450   15.5710   19.7730 C.3   119  LYS119      0.0271
     83  CG        10.7880   16.9850   20.0480 C.3   119  LYS119      0.0035
     84  CD        10.0420   18.0090   19.1820 C.3   119  LYS119      0.0206
     85  CE        10.3770   17.7580   17.7020 C.3   119  LYS119      0.1093
     86  NZ        11.2360   18.8940   17.2540 N.3   119  LYS119     -0.1314
     87  N         18.0190   19.5990   18.0800 N.3   180  ASP180     -0.1225
     88  CA        17.2510   19.3330   16.8820 C.3   180  ASP180      0.1805
     89  C         17.8050   20.2210   15.7820 C.2   180  ASP180      0.2597
     90  O         18.0280   21.4100   16.0090 O.2   180  ASP180     -0.2718
     91  CB        15.7830   19.5680   17.1120 C.3   180  ASP180      0.1424
     92  CG        14.9870   18.7990   16.0520 C.2   180  ASP180      0.3668
     93  OD1       13.9240   19.2750   15.6100 O.co2 180  ASP180     -0.2456
     94  OD2       15.4560   17.7100   15.6670 O.co2 180  ASP180     -0.2456
     95  N         18.1050   19.5930   14.6160 N.am  181  PHE181     -0.1976
     96  CA        18.6560   20.4020   13.5240 C.3   181  PHE181      0.1639
     97  C         20.0310   20.8640   13.9720 C.2   181  PHE181      0.2290
     98  O         20.5910   21.8090   13.5060 O.2   181  PHE181     -0.2864
     99  CB        17.7220   21.5300   13.1830 C.3   181  PHE181      0.0560
    100  CG        16.4450   21.0840   12.5040 C.ar  181  PHE181     -0.0200
    101  CD1       15.2460   21.0170   13.2270 C.ar  181  PHE181     -0.0042
    102  CD2       16.4280   20.7150   11.1800 C.ar  181  PHE181     -0.0042
    103  CE1       14.0560   20.6090   12.6060 C.ar  181  PHE181     -0.0003
    104  CE2       15.2460   20.2810   10.5540 C.ar  181  PHE181     -0.0003
    105  CZ        14.0510   20.2230   11.2950 C.ar  181  PHE181     -0.0000
    106  N         14.9420    9.6870   16.1980 N.3   214  CYS214     -0.1221
    107  CA        15.0630   11.0360   16.7850 C.3   214  CYS214      0.1808
    108  C         13.5920   11.4490   16.6800 C.2   214  CYS214      0.2602
    109  O         12.8090   10.5090   16.9330 O.2   214  CYS214     -0.2717
    110  CB        16.0720   11.9280   16.0780 C.3   214  CYS214      0.0970
    111  SG        16.0650   11.7490   14.2460 S.3   214  CYS214     -0.0800
    112  N         13.2070   12.6370   16.3680 N.am  215  SER215     -0.1938
    113  CA        11.7840   12.9620   16.2390 C.3   215  SER215      0.2055
    114  C         11.2800   12.4780   14.8550 C.2   215  SER215      0.2642
    115  O         10.3260   11.7130   14.8390 O.2   215  SER215     -0.2714
    116  CB        11.5270   14.4410   16.5190 C.3   215  SER215      0.2130
    117  OG        10.0940   14.6000   16.3310 O.3   215  SER215     -0.2179
    118  N         11.9400   12.8080   13.7520 N.am  216  ALA216     -0.1977
    119  CA        11.5330   12.3480   12.4000 C.3   216  ALA216      0.1597
    120  C         12.2440   11.0840   11.9460 C.2   216  ALA216      0.2287
    121  O         11.8080   10.3090   11.1120 O.2   216  ALA216     -0.2864
    122  CB        11.7520   13.3730   11.3240 C.3   216  ALA216      0.0319
    123  N         15.3410   11.1520   10.7070 N.3   218  ILE218     -0.1231
    124  CA        16.2100   11.4260    9.5560 C.3   218  ILE218      0.1692
    125  C         17.4370   12.2900    9.7920 C.2   218  ILE218      0.2593
    126  O         18.4950   12.0280    9.1970 O.2   218  ILE218     -0.2718
    127  CB        15.4570   11.9860    8.3170 C.3   218  ILE218      0.0266
    128  CG1       14.9570   13.4110    8.5780 C.3   218  ILE218      0.0019
    129  CG2       14.3210   11.0360    7.8990 C.3   218  ILE218      0.0020
    130  CD1       14.1080   13.8980    7.3850 C.3   218  ILE218      0.0001
    131  N         17.3460   13.3420   10.5960 N.am  219  GLY219     -0.1942
    132  CA        18.5450   14.2200   10.7280 C.3   219  GLY219      0.2014
    133  C         19.6240   13.6300   11.6170 C.2   219  GLY219      0.2638
    134  O         20.6420   13.1060   11.1760 O.2   219  GLY219     -0.2714
    135  N         19.2750   13.7300   12.9150 N.am  220  ARG220     -0.1977
    136  CA        20.1170   13.2300   13.9650 C.3   220  ARG220      0.1597
    137  C         20.3980   11.7640   13.7000 C.2   220  ARG220      0.2287
    138  O         21.5790   11.4170   13.6660 O.2   220  ARG220     -0.2864
    139  CB        19.5520   13.5250   15.3640 C.3   220  ARG220      0.0334
    140  CG        19.6870   15.0320   15.6770 C.3   220  ARG220      0.0492
    141  CD        18.9060   15.4850   16.8970 C.3   220  ARG220      0.2205
    142  NE        17.4410   15.4860   16.6860 N.pl3 220  ARG220     -0.0865
    143  CZ        16.6180   15.7860   17.7050 C.cat 220  ARG220      0.5346
    144  NH1       17.1390   16.0990   18.9000 N.pl3 220  ARG220      0.1354
    145  NH2       15.3120   15.7330   17.5960 N.pl3 220  ARG220      0.1354
    146  N         14.5770    8.5960    2.9340 N.3   257  MET257     -0.1230
    147  CA        14.7190    9.9760    2.4920 C.3   257  MET257      0.1702
    148  C         15.2400   10.9230    3.5340 C.2   257  MET257      0.2592
    149  O         15.0610   10.7570    4.7270 O.2   257  MET257     -0.2718
    150  CB        13.3320   10.4020    1.9830 C.3   257  MET257      0.0401
    151  CG        12.7480   11.6970    2.5110 C.3   257  MET257      0.0596
    152  SD        11.0010   11.6310    3.0210 S.3   257  MET257     -0.1393
    153  CE        10.3260   10.4370    1.8920 C.3   257  MET257      0.0692
    154  N         15.9060   12.0120    3.1160 N.am  258  GLY258     -0.1957
    155  CA        16.3720   13.0200    3.9840 C.3   258  GLY258      0.1869
    156  C         17.4320   12.8270    5.0330 C.2   258  GLY258      0.2309
    157  O         17.6560   13.7770    5.8450 O.2   258  GLY258     -0.2863
    158  N         19.9340   16.2970    7.9390 N.3   261  GLN261     -0.1245
    159  CA        19.1050   17.4490    7.6370 C.3   261  GLN261      0.1566
    160  C         19.7530   18.7820    7.4760 C.2   261  GLN261      0.2260
    161  O         19.0500   19.7210    7.0760 O.2   261  GLN261     -0.2867
    162  CB        17.9960   17.6690    8.7270 C.3   261  GLN261      0.0367
    163  CG        16.7630   16.7930    8.5280 C.3   261  GLN261      0.0905
    164  CD        16.1130   17.0860    7.1690 C.2   261  GLN261      0.2608
    165  OE1       15.5780   18.1520    7.0130 O.2   261  GLN261     -0.2717
    166  NE2       16.2240   16.2030    6.1790 N.am  261  GLN261     -0.0878
    167  N         25.2070   19.3400    9.9000 N.3   265  GLN265     -0.1245
    168  CA        25.2530   17.9260   10.3380 C.3   265  GLN265      0.1566
    169  C         26.1350   17.1180    9.3890 C.2   265  GLN265      0.2260
    170  O         26.7890   16.1570    9.7580 O.2   265  GLN265     -0.2867
    171  CB        23.8270   17.3710   10.3220 C.3   265  GLN265      0.0367
    172  CG        23.0700   17.6530   11.6130 C.3   265  GLN265      0.0905
    173  CD        21.6000   17.2400   11.4520 C.2   265  GLN265      0.2608
    174  OE1       21.1010   16.6990   10.4320 O.2   265  GLN265     -0.2717
    175  NE2       20.8430   17.5090   12.4810 N.am  265  GLN265     -0.0878
@<TRIPOS>BOND
     1     4     3    2
     2     3     2    1
     3     2     1    1
     4     2     5    1
     5     5     6    1
     6     6     7    1
     7     7     8    1
     8   153   152    1
     9   150   147    1
    10   150   151    1
    11     8     9    2
    12    10     9    1
    13   147   146    1
    14   147   148    1
    15   151   152    1
    16     9    11    1
    17   154   148   am
    18   154   155    1
    19   148   149    2
    20   155   156    1
    21    55    54    2
    22    67    64    1
    23    67    68    1
    24    66    65    2
    25    64    65    1
    26    64    63    1
    27   156   157    2
    28    65    71   am
    29    54    63   am
    30    54    53    1
    31    70    68   ar
    32    68    69   ar
    33    71    72    1
    34   166   164   am
    35    72    73    1
    36    72    75    1
    37    73    74    2
    38    56    53    1
    39    56    57    1
    40    61    60    1
    41    53    52    1
    42   165   164    2
    43   161   160    2
    44    57    58    1
    45   164   163    1
    46    58    59    1
    47    28    26   am
    48   130   128    1
    49   160   159    1
    50    60    59    2
    51    60    62    1
    52    75    77    1
    53    75    76    1
    54   159   158    1
    55   159   162    1
    56   129   127    1
    57    18    17    1
    58    18    19    1
    59    52    42   am
    60    43    42    2
    61    12    13    1
    62    16    17    1
    63    16    13    1
    64    26    27    2
    65    26    25    1
    66   127   128    1
    67   127   124    1
    68   163   162    1
    69    13    14    1
    70    42    41    1
    71    19    20    1
    72   126   125    2
    73    25    22    1
    74   169   170    2
    75   169   168    1
    76   124   125    1
    77   124   123    1
    78   125   131   am
    79   167   168    1
    80    44    41    1
    81    44    45    1
    82    41    40    1
    83    14    15    2
    84   171   168    1
    85   171   172    1
    86   174   173    2
    87   104   102   ar
    88   104   105   ar
    89   131   132    1
    90    22    21    1
    91    22    23    1
    92   132   133    1
    93    40    31   am
    94   121   120    2
    95   134   133    2
    96   102   100   ar
    97    45    46   ar
    98    45    47   ar
    99   105   103   ar
   100   122   119    1
   101   173   172    1
   102   173   175   am
   103    23    24    2
   104    23    29   am
   105   133   135   am
   106    46    48   ar
   107    47    49   ar
   108   120   119    1
   109    31    32    2
   110    31    30    1
   111    29    30    1
   112   119   118    1
   113   100    99    1
   114   100   101   ar
   115   103   101   ar
   116   135   136    1
   117    30    33    1
   118    48    50   ar
   119    49    50   ar
   120    99    96    1
   121    98    97    2
   122    96    97    1
   123    96    95    1
   124   138   137    2
   125   137   136    1
   126    50    51    1
   127    33    34    1
   128   118   114   am
   129   136   139    1
   130   111   110    1
   131    95    89   am
   132    34    35    1
   133   115   114    2
   134   114   113    1
   135   139   140    1
   136    93    92   ar
   137    94    92   ar
   138   140   141    1
   139    35    36    1
   140    89    90    2
   141    89    88    1
   142    92    91    1
   143   110   107    1
   144   106   107    1
   145   113   112    1
   146   113   116    1
   147   117   116    1
   148   112   108   am
   149   108   107    1
   150   108   109    2
   151   142   141    1
   152   142   143    2
   153    36    37    2
   154    88    91    1
   155    88    87    1
   156    86    85    1
   157   145   143    1
   158    85    84    1
   159   143   144    1
   160    37    38    1
   161    37    39    1
   162    81    80    2
   163    84    83    1
   164    80    79    1
   165    79    82    1
   166    79    78    1
   167    82    83    1
