@<TRIPOS>MOLECULE
tmp/1g7sA00.pdb
 107 104 0 0 0
SMALL
GASTEIGER

@<TRIPOS>ATOM
      1  N         15.0070   30.2440   17.9210 N.3    14  VAL14      -0.1231
      2  CA        13.8760   31.1530   18.0670 C.3    14  VAL14       0.1692
      3  C         12.5630   30.3870   18.1820 C.2    14  VAL14       0.2592
      4  O         12.3740   29.3700   17.5300 O.2    14  VAL14      -0.2718
      5  CB        13.7800   32.1540   16.8800 C.3    14  VAL14       0.0266
      6  CG1       13.3680   31.4300   15.6010 C.3    14  VAL14       0.0020
      7  CG2       12.7860   33.2730   17.2260 C.3    14  VAL14       0.0020
      8  N         11.6790   30.8950   19.0350 N.am   15  ASP15      -0.1960
      9  CA        10.3550   30.3180   19.3040 C.3    15  ASP15       0.1840
     10  C         10.3480   29.0070   20.0820 C.2    15  ASP15       0.2622
     11  O          9.2830   28.4140   20.2660 O.2    15  ASP15      -0.2715
     12  CB         9.5550   30.1070   18.0160 C.3    15  ASP15       0.1450
     13  CG         9.2890   31.4040   17.2650 C.2    15  ASP15       0.3671
     14  OD1        8.9630   32.4320   17.9040 O.co2  15  ASP15      -0.2456
     15  OD2        9.3970   31.3820   16.0240 O.co2  15  ASP15      -0.2456
     16  N         11.5070   28.5450   20.5450 N.am   16  HIS16      -0.1959
     17  CA        11.5110   27.2920   21.2870 C.3    16  HIS16       0.1787
     18  C         11.1340   27.4990   22.7340 C.2    16  HIS16       0.2621
     19  O         10.9370   26.5370   23.4570 O.2    16  HIS16      -0.2715
     20  CB        12.8430   26.5450   21.1450 C.3    16  HIS16       0.0785
     21  CG        12.9640   25.7920   19.8530 C.ar   16  HIS16       0.0821
     22  ND1       13.8540   24.7510   19.6710 N.ar   16  HIS16      -0.2267
     23  CD2       12.2830   25.9150   18.6860 C.ar   16  HIS16       0.1154
     24  CE1       13.7120   24.2660   18.4480 C.ar   16  HIS16       0.1986
     25  NE2       12.7650   24.9540   17.8300 N.ar   16  HIS16      -0.2212
     26  N         11.0280   28.7590   23.1570 N.am   17  GLY17      -0.1940
     27  CA        10.5820   29.0290   24.5130 C.3    17  GLY17       0.2014
     28  C         11.4240   29.7920   25.5130 C.2    17  GLY17       0.2639
     29  O         11.0610   29.8530   26.6850 O.2    17  GLY17      -0.2714
     30  N         12.5290   30.3790   25.0800 N.am   18  LYS18      -0.1963
     31  CA        13.3980   31.1140   25.9910 C.3    18  LYS18       0.1728
     32  C         12.6630   32.1790   26.8050 C.2    18  LYS18       0.2617
     33  O         12.7670   32.2110   28.0240 O.2    18  LYS18      -0.2715
     34  CB        14.5450   31.7670   25.2120 C.3    18  LYS18       0.0311
     35  CG        15.4210   30.7840   24.4460 C.3    18  LYS18       0.0038
     36  CD        16.5800   31.5100   23.7560 C.3    18  LYS18       0.0206
     37  CE        16.1060   32.3690   22.5970 C.3    18  LYS18       0.1093
     38  NZ        15.3690   31.5570   21.5870 N.3    18  LYS18      -0.1314
     39  N         11.9030   33.0350   26.1270 N.am   19  THR19      -0.1937
     40  CA        11.1720   34.1140   26.7940 C.3    19  THR19       0.2028
     41  C         10.0900   33.5910   27.7280 C.2    19  THR19       0.2642
     42  O         10.0440   33.9490   28.9110 O.2    19  THR19      -0.2714
     43  CB        10.5200   35.0640   25.7630 C.3    19  THR19       0.1808
     44  OG1       11.5310   35.5690   24.8700 O.3    19  THR19      -0.2208
     45  CG2        9.8350   36.2350   26.4790 C.3    19  THR19       0.0379
     46  N          9.2190   32.7410   27.1910 N.am   20  THR20      -0.1950
     47  CA         8.1480   32.1540   27.9730 C.3    20  THR20       0.1897
     48  C          8.7000   31.5170   29.2360 C.2    20  THR20       0.2313
     49  O          8.1290   31.6570   30.3180 O.2    20  THR20      -0.2863
     50  CB         7.4160   31.0560   27.1870 C.3    20  THR20       0.1794
     51  OG1        7.0280   31.5570   25.9080 O.3    20  THR20      -0.2208
     52  CG2        6.1890   30.5940   27.9440 C.3    20  THR20       0.0378
     53  N         11.3920   21.5540   25.9710 N.3   126  ASN126     -0.1225
     54  CA        10.1530   22.3290   26.1210 C.3   126  ASN126      0.1785
     55  C          8.9460   21.9370   25.2790 C.2   126  ASN126      0.2597
     56  O          9.0610   21.2260   24.2900 O.2   126  ASN126     -0.2718
     57  CB        10.4830   23.8020   25.8550 C.3   126  ASN126      0.1169
     58  CG         9.3900   24.7500   26.3000 C.2   126  ASN126      0.2627
     59  OD1        9.1660   25.7930   25.6680 O.2   126  ASN126     -0.2716
     60  ND2        8.7310   24.4260   27.3990 N.am  126  ASN126     -0.0877
     61  N          7.7860   22.4510   25.6920 N.am  127  LYS127     -0.1980
     62  CA         6.5210   22.2210   25.0060 C.3   127  LYS127      0.1596
     63  C          5.9780   20.7870   25.1130 C.2   127  LYS127      0.2287
     64  O          5.3490   20.2710   24.1730 O.2   127  LYS127     -0.2864
     65  CB         6.6590   22.6340   23.5300 C.3   127  LYS127      0.0298
     66  CG         6.9070   24.1420   23.3200 C.3   127  LYS127      0.0038
     67  CD         6.8190   24.5310   21.8510 C.3   127  LYS127      0.0206
     68  CE         6.9100   26.0360   21.6410 C.3   127  LYS127      0.1093
     69  NZ         8.0650   26.5670   22.3700 N.3   127  LYS127     -0.1314
     70  N          3.5510   19.8810   26.7390 N.3   129  ASP129     -0.1225
     71  CA         2.0970   19.9850   26.7400 C.3   129  ASP129      0.1805
     72  C          1.5260   19.7840   25.3420 C.2   129  ASP129      0.2597
     73  O          0.3310   19.5350   25.1970 O.2   129  ASP129     -0.2718
     74  CB         1.6490   21.3550   27.2690 C.3   129  ASP129      0.1424
     75  CG         2.2180   22.5020   26.4550 C.2   129  ASP129      0.3668
     76  OD1        3.4470   22.7290   26.5300 O.co2 129  ASP129     -0.2456
     77  OD2        1.4410   23.1670   25.7390 O.co2 129  ASP129     -0.2456
     78  N          2.3680   19.9000   24.3200 N.am  130  ARG130     -0.1979
     79  CA         1.9220   19.7260   22.9480 C.3   130  ARG130      0.1597
     80  C          2.0420   18.2980   22.4320 C.2   130  ARG130      0.2287
     81  O          1.7650   18.0340   21.2600 O.2   130  ARG130     -0.2864
     82  CB         2.6810   20.6610   22.0080 C.3   130  ARG130      0.0334
     83  CG         2.4510   22.1300   22.2970 C.3   130  ARG130      0.0492
     84  CD         3.1090   23.0080   21.2430 C.3   130  ARG130      0.2205
     85  NE         2.5060   22.8190   19.9220 N.pl3 130  ARG130     -0.0865
     86  CZ         2.9330   23.4080   18.8060 C.cat 130  ARG130      0.5346
     87  NH1        3.9780   24.2380   18.8390 N.pl3 130  ARG130      0.1354
     88  NH2        2.3120   23.1650   17.6510 N.pl3 130  ARG130      0.1354
     89  N          7.3260   22.3930   30.2520 N.3   194  SER194     -0.1202
     90  CA         6.3620   23.1940   29.5030 C.3   194  SER194      0.2020
     91  C          6.5340   24.5500   30.1690 C.2   194  SER194      0.2619
     92  O          6.1820   24.7320   31.3380 O.2   194  SER194     -0.2717
     93  CB         4.9100   22.7250   29.6690 C.3   194  SER194      0.2103
     94  OG         4.0560   23.7710   29.1930 O.3   194  SER194     -0.2182
     95  N          7.1140   25.4860   29.4370 N.am  195  ALA195     -0.1965
     96  CA         7.3470   26.8150   29.9800 C.3   195  ALA195      0.1728
     97  C          6.0330   27.5660   30.1620 C.2   195  ALA195      0.2616
     98  O          5.9030   28.3980   31.0570 O.2   195  ALA195     -0.2715
     99  CB         8.2690   27.6030   29.0420 C.3   195  ALA195      0.0334
    100  N          5.0580   27.2570   29.3140 N.am  196  ILE196     -0.1977
    101  CA         3.7770   27.9460   29.3760 C.3   196  ILE196      0.1596
    102  C          2.9480   27.4130   30.5190 C.2   196  ILE196      0.2287
    103  O          2.2280   28.1480   31.1780 O.2   196  ILE196     -0.2864
    104  CB         3.0130   27.8010   28.0330 C.3   196  ILE196      0.0276
    105  CG1        2.2950   29.1110   27.7110 C.3   196  ILE196      0.0022
    106  CG2        2.0110   26.6570   28.1080 C.3   196  ILE196      0.0022
    107  CD1        1.7370   29.1960   26.2860 C.3   196  ILE196      0.0001
@<TRIPOS>BOND
     1     6     5    1
     2    15    13   ar
     3     5     7    1
     4     5     2    1
     5    13    14   ar
     6    13    12    1
     7     4     3    2
     8    88    86    1
     9    25    24   ar
    10    25    23   ar
    11     1     2    1
    12    12     9    1
    13     2     3    1
    14     3     8   am
    15    24    22   ar
    16    23    21   ar
    17    86    87    1
    18    86    85    2
    19     8     9    1
    20     9    10    1
    21    22    21   ar
    22    21    20    1
    23    85    84    1
    24    10    11    2
    25    10    16   am
    26    16    17    1
    27    20    17    1
    28    84    83    1
    29    81    80    2
    30    17    18    1
    31    38    37    1
    32    68    67    1
    33    68    69    1
    34    67    66    1
    35    82    83    1
    36    82    79    1
    37    80    79    1
    38    37    36    1
    39    18    26   am
    40    18    19    2
    41    79    78    1
    42    26    27    1
    43    66    65    1
    44    65    62    1
    45    36    35    1
    46    64    63    2
    47    56    55    2
    48    78    72   am
    49    35    34    1
    50    27    28    1
    51    44    43    1
    52    62    63    1
    53    62    61    1
    54    30    28   am
    55    30    31    1
    56    73    72    2
    57    34    31    1
    58    55    61   am
    59    55    54    1
    60    72    71    1
    61    28    29    2
    62    59    58    2
    63    77    75   ar
    64    43    45    1
    65    43    40    1
    66    57    54    1
    67    57    58    1
    68    51    50    1
    69    53    54    1
    70    31    32    1
    71    39    40    1
    72    39    32   am
    73   107   105    1
    74    58    60   am
    75    75    76   ar
    76    75    74    1
    77    70    71    1
    78    71    74    1
    79    40    41    1
    80    32    33    2
    81    50    52    1
    82    50    47    1
    83    46    41   am
    84    46    47    1
    85   105   104    1
    86    41    42    2
    87    47    48    1
    88   104   106    1
    89   104   101    1
    90    99    96    1
    91    94    93    1
    92    48    49    2
    93   100   101    1
    94   100    97   am
    95   101   102    1
    96    95    96    1
    97    95    91   am
    98    90    93    1
    99    90    91    1
   100    90    89    1
   101    96    97    1
   102    97    98    2
   103    91    92    2
   104   102   103    2
