@<TRIPOS>MOLECULE
tmp/1g7tA00.pdb
 133 129 0 0 0
SMALL
GASTEIGER

@<TRIPOS>ATOM
      1  N         -6.2060   -1.3520  -13.8220 N.3    14  VAL14      -0.1231
      2  CA        -7.2340   -0.3060  -13.7400 C.3    14  VAL14       0.1692
      3  C         -8.5490   -0.9200  -13.3070 C.2    14  VAL14       0.2592
      4  O         -8.9600   -1.9540  -13.8370 O.2    14  VAL14      -0.2718
      5  CB        -7.4550    0.4030  -15.1260 C.3    14  VAL14       0.0266
      6  CG1       -6.1090    0.8600  -15.7060 C.3    14  VAL14       0.0020
      7  CG2       -8.1380   -0.5430  -16.0840 C.3    14  VAL14       0.0020
      8  N         -9.1870   -0.2820  -12.3330 N.am   15  ASP15      -0.1960
      9  CA       -10.4560   -0.6980  -11.7580 C.3    15  ASP15       0.1840
     10  C        -10.6040   -2.0810  -11.1000 C.2    15  ASP15       0.2622
     11  O        -11.7300   -2.5370  -10.8720 O.2    15  ASP15      -0.2715
     12  CB       -11.5770   -0.4990  -12.7740 C.3    15  ASP15       0.1450
     13  CG       -11.8150    0.9760  -13.0710 C.2    15  ASP15       0.3671
     14  OD1      -11.5110    1.8210  -12.1830 O.co2  15  ASP15      -0.2456
     15  OD2      -12.3050    1.2840  -14.1780 O.co2  15  ASP15      -0.2456
     16  N         -9.4930   -2.7460  -10.7980 N.am   16  HIS16      -0.1959
     17  CA        -9.6030   -4.0210  -10.1100 C.3    16  HIS16       0.1787
     18  C         -9.9070   -3.7420   -8.6370 C.2    16  HIS16       0.2621
     19  O        -10.1330   -4.6670   -7.8550 O.2    16  HIS16      -0.2715
     20  CB        -8.3330   -4.8600  -10.3230 C.3    16  HIS16       0.0785
     21  CG        -8.3330   -5.6130  -11.6250 C.ar   16  HIS16       0.0821
     22  ND1       -7.4400   -6.6260  -11.9090 N.ar   16  HIS16      -0.2267
     23  CD2       -9.1280   -5.4980  -12.7170 C.ar   16  HIS16       0.1154
     24  CE1       -7.6860   -7.1030  -13.1180 C.ar   16  HIS16       0.1986
     25  NE2       -8.7050   -6.4330  -13.6300 N.ar   16  HIS16      -0.2212
     26  N         -9.9190   -2.4510   -8.2520 N.am   17  GLY17      -0.1940
     27  CA       -10.2740   -2.1060   -6.8860 C.3    17  GLY17       0.2014
     28  C         -9.2820   -1.5000   -5.8970 C.2    17  GLY17       0.2639
     29  O         -9.5650   -1.4980   -4.6990 O.2    17  GLY17      -0.2714
     30  N         -8.1480   -0.9830   -6.3560 N.am   18  LYS18      -0.1963
     31  CA        -7.1760   -0.3830   -5.4340 C.3    18  LYS18       0.1728
     32  C         -7.7940    0.6260   -4.4570 C.2    18  LYS18       0.2617
     33  O         -7.7040    0.4850   -3.2290 O.2    18  LYS18      -0.2715
     34  CB        -6.0800    0.3610   -6.2190 C.3    18  LYS18       0.0311
     35  CG        -4.9460   -0.4720   -6.7330 C.3    18  LYS18       0.0038
     36  CD        -4.9850   -0.5980   -8.2430 C.3    18  LYS18       0.0206
     37  CE        -5.2610    0.7250   -8.9870 C.3    18  LYS18       0.1093
     38  NZ        -5.5520    0.3030  -10.4030 N.3    18  LYS18      -0.1314
     39  N         -8.4130    1.6600   -5.0120 N.am   19  THR19      -0.1937
     40  CA        -8.9890    2.7310   -4.1690 C.3    19  THR19       0.2028
     41  C        -10.1430    2.3050   -3.3030 C.2    19  THR19       0.2642
     42  O        -10.2470    2.7060   -2.1380 O.2    19  THR19      -0.2714
     43  CB        -9.3770    3.9420   -5.0630 C.3    19  THR19       0.1808
     44  OG1       -8.2160    4.3120   -5.8080 O.3    19  THR19      -0.2208
     45  CG2       -9.8330    5.1580   -4.2500 C.3    19  THR19       0.0379
     46  N        -11.0200    1.4720   -3.8520 N.am   20  THR20      -0.1950
     47  CA       -12.1560    1.0010   -3.1080 C.3    20  THR20       0.1897
     48  C        -11.7150    0.2120   -1.8640 C.2    20  THR20       0.2313
     49  O        -12.3510    0.2890   -0.8120 O.2    20  THR20      -0.2863
     50  CB       -13.0580    0.1110   -4.0060 C.3    20  THR20       0.1794
     51  OG1      -13.5860    0.8920   -5.0930 O.3    20  THR20      -0.2208
     52  CG2      -14.1870   -0.4820   -3.1960 C.3    20  THR20       0.0378
     53  N         -1.9610    3.5430   -5.2780 N.3    73  THR73      -0.1218
     54  CA        -1.1030    3.8120   -6.4310 C.3    73  THR73       0.1862
     55  C         -1.5650    5.2380   -6.8400 C.2    73  THR73       0.2287
     56  O         -2.7560    5.4920   -6.9660 O.2    73  THR73      -0.2866
     57  CB        -1.4110    2.8430   -7.5730 C.3    73  THR73       0.1770
     58  OG1       -0.9210    3.3760   -8.8150 O.3    73  THR73      -0.2211
     59  CG2       -2.8850    2.7210   -7.7150 C.3    73  THR73       0.0375
     60  N         -2.4520    7.5170  -12.7730 N.3    76  HIS76      -0.1226
     61  CA        -3.1020    6.4000  -13.4550 C.3    76  HIS76       0.1752
     62  C         -2.0890    5.2610  -13.5190 C.2    76  HIS76       0.2595
     63  O         -1.1790    5.2900  -14.3290 O.2    76  HIS76      -0.2718
     64  CB        -3.5450    6.7940  -14.8740 C.3    76  HIS76       0.0759
     65  CG        -4.4270    5.7700  -15.5410 C.ar   76  HIS76       0.0818
     66  ND1       -5.7000    5.4670  -15.0950 N.ar   76  HIS76      -0.2268
     67  CD2       -4.2050    4.9650  -16.6100 C.ar   76  HIS76       0.1154
     68  CE1       -6.2210    4.5220  -15.8580 C.ar   76  HIS76       0.1986
     69  NE2       -5.3350    4.1980  -16.7850 N.ar   76  HIS76      -0.2212
     70  N         -2.2360    4.2870  -12.6270 N.am   77  GLU77      -0.1979
     71  CA        -1.3570    3.1180  -12.5640 C.3    77  GLU77       0.1602
     72  C          0.1320    3.4830  -12.4210 C.2    77  GLU77       0.2287
     73  O          0.9890    2.7340  -12.8830 O.2    77  GLU77      -0.2864
     74  CB        -1.5340    2.2590  -13.8280 C.3    77  GLU77       0.0415
     75  CG        -2.9720    2.1480  -14.2730 C.3    77  GLU77       0.1163
     76  CD        -3.9160    2.0420  -13.1060 C.2    77  GLU77       0.3649
     77  OE1       -4.9370    2.7650  -13.1100 O.co2  77  GLU77      -0.2457
     78  OE2       -3.6370    1.2380  -12.1880 O.co2  77  GLU77      -0.2457
     79  N         -9.7930   -9.9040   -5.5580 N.3   126  ASN126     -0.1225
     80  CA       -10.9740   -9.0820   -5.3260 C.3   126  ASN126      0.1785
     81  C        -12.2360   -9.3730   -6.1370 C.2   126  ASN126      0.2597
     82  O        -12.1940  -10.0050   -7.2020 O.2   126  ASN126     -0.2718
     83  CB       -10.5700   -7.6210   -5.5370 C.3   126  ASN126      0.1169
     84  CG       -11.5730   -6.6270   -4.9630 C.2   126  ASN126      0.2627
     85  OD1      -12.1960   -6.8710   -3.9240 O.2   126  ASN126     -0.2716
     86  ND2      -11.7030   -5.4760   -5.6230 N.am  126  ASN126     -0.0877
     87  N        -13.3430   -8.8480   -5.6160 N.am  127  LYS127     -0.1980
     88  CA       -14.6650   -8.9540   -6.2000 C.3   127  LYS127      0.1596
     89  C        -15.2730  -10.3660   -6.1250 C.2   127  LYS127      0.2287
     90  O        -15.9330  -10.8030   -7.0690 O.2   127  LYS127     -0.2864
     91  CB       -14.6400   -8.4330   -7.6620 C.3   127  LYS127      0.0298
     92  CG       -14.0300   -7.0240   -7.7920 C.3   127  LYS127      0.0038
     93  CD       -14.2480   -6.3780   -9.1350 C.3   127  LYS127      0.0206
     94  CE       -13.6990   -4.9330   -9.1620 C.3   127  LYS127      0.1093
     95  NZ       -14.0330   -4.2000  -10.4520 N.3   127  LYS127     -0.1314
     96  N        -17.6850  -11.1340   -4.4710 N.3   129  ASP129     -0.1225
     97  CA       -19.1270  -10.9100   -4.3440 C.3   129  ASP129      0.1805
     98  C        -19.8020  -10.9820   -5.7160 C.2   129  ASP129      0.2597
     99  O        -21.0280  -11.0530   -5.7950 O.2   129  ASP129     -0.2718
    100  CB       -19.4080   -9.5270   -3.7660 C.3   129  ASP129      0.1424
    101  CG       -18.8860   -8.4200   -4.6590 C.2   129  ASP129      0.3668
    102  OD1      -17.6530   -8.3460   -4.8570 O.co2 129  ASP129     -0.2456
    103  OD2      -19.7020   -7.6310   -5.1820 O.co2 129  ASP129     -0.2456
    104  N        -19.0140  -10.9300   -6.7880 N.am  130  ARG130     -0.1979
    105  CA       -19.5880  -11.0130   -8.1280 C.3   130  ARG130      0.1597
    106  C        -19.5270  -12.4200   -8.7360 C.2   130  ARG130      0.2287
    107  O        -19.9060  -12.6170   -9.8830 O.2   130  ARG130     -0.2864
    108  CB       -18.9290   -9.9880   -9.0610 C.3   130  ARG130      0.0334
    109  CG       -19.3220   -8.5510   -8.7000 C.3   130  ARG130      0.0492
    110  CD       -18.9220   -7.5350   -9.7360 C.3   130  ARG130      0.2205
    111  NE       -19.6770   -7.7140  -10.9700 N.pl3 130  ARG130     -0.0865
    112  CZ       -19.6300   -6.8790  -12.0050 C.cat 130  ARG130      0.5346
    113  NH1      -18.8630   -5.7890  -11.9580 N.pl3 130  ARG130      0.1354
    114  NH2      -20.3360   -7.1450  -13.0980 N.pl3 130  ARG130      0.1354
    115  N        -13.6730   -9.0550   -0.9590 N.3   194  SER194     -0.1202
    116  CA       -14.6150   -8.1680   -1.6190 C.3   194  SER194      0.2020
    117  C        -14.3550   -6.7820   -1.0120 C.2   194  SER194      0.2619
    118  O        -14.6180   -6.5620    0.1900 O.2   194  SER194     -0.2717
    119  CB       -16.0620   -8.5180   -1.3420 C.3   194  SER194      0.2103
    120  OG       -16.8470   -7.4500   -1.8670 O.3   194  SER194     -0.2182
    121  N        -13.8470   -5.8710   -1.8310 N.am  195  ALA195     -0.1965
    122  CA       -13.5380   -4.5270   -1.3770 C.3   195  ALA195      0.1728
    123  C        -14.8120   -3.7570   -1.0630 C.2   195  ALA195      0.2616
    124  O        -14.8060   -2.8800   -0.2020 O.2   195  ALA195     -0.2715
    125  CB       -12.7410   -3.7900   -2.4240 C.3   195  ALA195      0.0334
    126  N        -15.8990   -4.0860   -1.7590 N.am  196  ILE196     -0.1977
    127  CA       -17.1770   -3.4030   -1.5430 C.3   196  ILE196      0.1596
    128  C        -17.8080   -3.9410   -0.2870 C.2   196  ILE196      0.2287
    129  O        -18.2630   -3.2020    0.5610 O.2   196  ILE196     -0.2864
    130  CB       -18.1250   -3.5950   -2.7320 C.3   196  ILE196      0.0276
    131  CG1      -17.8870   -2.4660   -3.7240 C.3   196  ILE196      0.0022
    132  CG2      -19.5820   -3.6340   -2.2700 C.3   196  ILE196      0.0022
    133  CD1      -18.8880   -2.4020   -4.8750 C.3   196  ILE196      0.0001
@<TRIPOS>BOND
     1    69    67   ar
     2    69    68   ar
     3    67    65   ar
     4     7     5    1
     5    68    66   ar
     6     6     5    1
     7    65    66   ar
     8    65    64    1
     9     5     2    1
    10    64    61    1
    11    63    62    2
    12    75    74    1
    13    75    76    1
    14    15    13   ar
    15     4     3    2
    16    74    71    1
    17     1     2    1
    18     2     3    1
    19    25    24   ar
    20    25    23   ar
    21    62    61    1
    22    62    70   am
    23    61    60    1
    24     3     8   am
    25    24    22   ar
    26    77    76   ar
    27    76    78   ar
    28   114   112    1
    29    13    12    1
    30    13    14   ar
    31    73    72    2
    32    12     9    1
    33    23    21   ar
    34    70    71    1
    35    71    72    1
    36     8     9    1
    37   112   113    1
    38   112   111    2
    39    22    21   ar
    40     9    10    1
    41    21    20    1
    42    10    11    2
    43    10    16   am
    44   111   110    1
    45    16    17    1
    46    95    94    1
    47    38    37    1
    48    20    17    1
    49    17    18    1
    50   107   106    2
    51   110   109    1
    52    94    93    1
    53    93    92    1
    54   108   109    1
    55   108   105    1
    56    37    36    1
    57    58    57    1
    58   106   105    1
    59    18    26   am
    60    18    19    2
    61    26    27    1
    62    36    35    1
    63   105   104    1
    64    92    91    1
    65    59    57    1
    66    91    88    1
    67    57    54    1
    68    82    81    2
    69    90    89    2
    70    56    55    2
    71    27    28    1
    72    55    54    1
    73   104    98   am
    74    35    34    1
    75    54    53    1
    76    30    28   am
    77    30    31    1
    78    34    31    1
    79    88    89    1
    80    88    87    1
    81    81    87   am
    82    81    80    1
    83    28    29    2
    84    44    43    1
    85    99    98    2
    86    98    97    1
    87    86    84   am
    88    79    80    1
    89    83    80    1
    90    83    84    1
    91    31    32    1
    92   103   101   ar
    93    51    50    1
    94    43    45    1
    95    43    40    1
    96    39    32   am
    97    39    40    1
    98    84    85    2
    99   133   131    1
   100   102   101   ar
   101   101   100    1
   102    96    97    1
   103    32    33    2
   104    97   100    1
   105    40    41    1
   106    50    52    1
   107    50    47    1
   108    46    41   am
   109    46    47    1
   110   131   130    1
   111    41    42    2
   112    47    48    1
   113   130   132    1
   114   130   127    1
   115   125   122    1
   116   120   119    1
   117    48    49    2
   118   121   122    1
   119   121   117   am
   120   126   127    1
   121   126   123   am
   122   116   119    1
   123   116   117    1
   124   116   115    1
   125   127   128    1
   126   122   123    1
   127   123   124    2
   128   117   118    2
   129   128   129    2
