@<TRIPOS>MOLECULE
tmp/1g7vA00.pdb
 194 186 0 0 0
SMALL
GASTEIGER

@<TRIPOS>ATOM
      1  N         15.9540  105.4250   79.6660 N.3    26  ASN26      -0.1225
      2  CA        14.6190  105.9050   80.0280 C.3    26  ASN26       0.1785
      3  C         14.2170  105.6510   81.4790 C.2    26  ASN26       0.2597
      4  O         14.8200  106.2340   82.3730 O.2    26  ASN26      -0.2718
      5  CB        13.5650  105.4200   79.0510 C.3    26  ASN26       0.1169
      6  CG        12.3110  106.2400   79.1160 C.2    26  ASN26       0.2627
      7  OD1       11.7280  106.3880   80.1820 O.2    26  ASN26      -0.2716
      8  ND2       11.8830  106.7860   77.9780 N.am   26  ASN26      -0.0877
      9  N         13.2210  104.8040   81.7320 N.am   27  VAL27      -0.1980
     10  CA        12.7980  104.5440   83.1160 C.3    27  VAL27       0.1595
     11  C         14.0080  104.0260   83.9150 C.2    27  VAL27       0.2287
     12  O         14.7870  103.1980   83.3990 O.2    27  VAL27      -0.2864
     13  CB        11.5850  103.5120   83.1970 C.3    27  VAL27       0.0276
     14  CG1       11.0400  103.4300   84.6100 C.3    27  VAL27       0.0022
     15  CG2       10.4550  103.9080   82.2440 C.3    27  VAL27       0.0022
     16  N          6.3490  107.1010   86.7010 N.3    60  LYS60      -0.1245
     17  CA         5.4540  106.5680   85.6730 C.3    60  LYS60       0.1561
     18  C          4.8240  107.7140   84.8920 C.2    60  LYS60       0.2260
     19  O          5.4990  108.3690   84.0980 O.2    60  LYS60      -0.2867
     20  CB         4.3420  105.6920   86.2960 C.3    60  LYS60       0.0271
     21  CG         3.4630  104.9710   85.2510 C.3    60  LYS60       0.0035
     22  CD         2.5960  103.8900   85.8710 C.3    60  LYS60       0.0206
     23  CE         1.5720  104.4500   86.8350 C.3    60  LYS60       0.1093
     24  NZ         0.6080  103.4010   87.2260 N.3    60  LYS60      -0.1314
     25  N          3.4420  108.3330   82.2460 N.3    62  ASN62      -0.1225
     26  CA         3.1960  107.8910   80.8570 C.3    62  ASN62       0.1785
     27  C          3.0460  106.3630   80.6050 C.2    62  ASN62       0.2597
     28  O          3.9030  105.5520   80.9890 O.2    62  ASN62      -0.2718
     29  CB         4.2430  108.5000   79.8830 C.3    62  ASN62       0.1169
     30  CG         4.1590  110.0400   79.7860 C.2    62  ASN62       0.2627
     31  OD1        3.3490  110.5920   79.0340 O.2    62  ASN62      -0.2716
     32  ND2        5.0210  110.7300   80.5290 N.am   62  ASN62      -0.0877
     33  N          1.9230  106.0010   79.9740 N.am   63  ARG63      -0.1966
     34  CA         1.5590  104.6260   79.5930 C.3    63  ARG63       0.1729
     35  C          0.7910  103.6970   80.5600 C.2    63  ARG63       0.2616
     36  O         -0.2460  104.1120   81.0820 O.2    63  ARG63      -0.2715
     37  CB         2.7310  103.9240   78.9100 C.3    63  ARG63       0.0348
     38  CG         2.9790  104.4820   77.5080 C.3    63  ARG63       0.0492
     39  CD         4.0900  103.7280   76.7590 C.3    63  ARG63       0.2205
     40  NE         3.7750  102.3250   76.4720 N.pl3  63  ARG63      -0.0865
     41  CZ         4.2410  101.2960   77.1670 C.cat  63  ARG63       0.5346
     42  NH1        5.0460  101.4860   78.2000 N.pl3  63  ARG63       0.1354
     43  NH2        3.8740  100.0730   76.8310 N.pl3  63  ARG63       0.1354
     44  N          1.2590  102.4510   80.7440 N.am   64  SER64      -0.1950
     45  CA         0.6330  101.3990   81.5950 C.3    64  SER64       0.1924
     46  C          0.3110  101.7320   83.0690 C.2    64  SER64       0.2314
     47  O          1.1960  102.1760   83.8080 O.2    64  SER64      -0.2863
     48  CB         1.4960  100.1490   81.5070 C.3    64  SER64       0.2116
     49  OG         1.5890   99.7270   80.1620 O.3    64  SER64      -0.2180
     50  N          1.7480   99.1830   86.7470 N.3    68  SER68      -0.1202
     51  CA         2.4930   98.7000   85.5740 C.3    68  SER68       0.2020
     52  C          3.9110   99.2930   85.3680 C.2    68  SER68       0.2618
     53  O          4.1230  100.1230   84.4730 O.2    68  SER68      -0.2717
     54  CB         1.6570   98.9210   84.3230 C.3    68  SER68       0.2103
     55  OG         0.3490   98.3870   84.4460 O.3    68  SER68      -0.2182
     56  N          4.8690   98.8360   86.1910 N.am   69  TYR69      -0.1975
     57  CA         6.2610   99.3080   86.1530 C.3    69  TYR69       0.1639
     58  C          6.1820  100.8360   86.2030 C.2    69  TYR69       0.2290
     59  O          6.4380  101.5200   85.2080 O.2    69  TYR69      -0.2864
     60  CB         6.9410   98.8520   84.8560 C.3    69  TYR69       0.0560
     61  CG         8.4220   98.6180   84.9700 C.ar   69  TYR69      -0.0198
     62  CD1        9.3370   99.6590   84.7810 C.ar   69  TYR69      -0.0009
     63  CD2        8.9170   97.3530   85.2680 C.ar   69  TYR69      -0.0009
     64  CE1       10.7250   99.4470   84.8900 C.ar   69  TYR69       0.0417
     65  CE2       10.2920   97.1200   85.3790 C.ar   69  TYR69       0.0417
     66  CZ        11.1980   98.1740   85.1910 C.ar   69  TYR69       0.1957
     67  OH        12.5600   97.9400   85.3220 O.3    69  TYR69      -0.2866
     68  N          8.0940  117.8880   81.6480 N.3   115  PRO115     -0.2102
     69  CA         7.4320  117.0100   80.6690 C.3   115  PRO115      0.1504
     70  C          6.4380  117.6930   79.7260 C.2   115  PRO115      0.2576
     71  O          5.5500  118.4220   80.1640 O.2   115  PRO115     -0.2718
     72  CB         6.7500  115.9610   81.5540 C.3   115  PRO115      0.0282
     73  CG         7.5720  115.9600   82.7950 C.3   115  PRO115      0.0208
     74  CD         7.8250  117.4230   83.0180 C.3   115  PRO115      0.0893
     75  N          6.5550  117.3890   78.4380 N.am  116  ALA116     -0.1966
     76  CA         5.7170  117.9730   77.3930 C.3   116  ALA116      0.1728
     77  C          4.2650  118.2320   77.7910 C.2   116  ALA116      0.2616
     78  O          3.7430  119.3490   77.6250 O.2   116  ALA116     -0.2715
     79  CB         5.7730  117.1110   76.1620 C.3   116  ALA116      0.0334
     80  N          3.6560  117.2130   78.3860 N.am  117  PHE117     -0.1974
     81  CA         2.2730  117.2520   78.8330 C.3   117  PHE117      0.1639
     82  C          1.8800  118.2980   79.8640 C.2   117  PHE117      0.2290
     83  O          0.7040  118.5640   80.0510 O.2   117  PHE117     -0.2864
     84  CB         1.8670  115.8620   79.2850 C.3   117  PHE117      0.0560
     85  CG         1.5880  114.9380   78.1440 C.ar  117  PHE117     -0.0200
     86  CD1        2.5080  114.8090   77.1090 C.ar  117  PHE117     -0.0042
     87  CD2        0.3820  114.2420   78.0670 C.ar  117  PHE117     -0.0042
     88  CE1        2.2350  114.0030   76.0110 C.ar  117  PHE117     -0.0003
     89  CE2        0.0950  113.4330   76.9750 C.ar  117  PHE117     -0.0003
     90  CZ         1.0290  113.3130   75.9440 C.ar  117  PHE117     -0.0000
     91  N         10.7610  120.3940   77.6200 N.3   138  LYS138     -0.1245
     92  CA        10.3980  119.3850   76.6460 C.3   138  LYS138      0.1561
     93  C          9.3980  120.0810   75.6950 C.2   138  LYS138      0.2260
     94  O          8.2680  120.3390   76.0960 O.2   138  LYS138     -0.2867
     95  CB         9.7580  118.1840   77.3760 C.3   138  LYS138      0.0271
     96  CG         9.7710  116.8320   76.6250 C.3   138  LYS138      0.0035
     97  CD        10.8940  115.8700   77.0860 C.3   138  LYS138      0.0206
     98  CE        12.2890  116.3580   76.6950 C.3   138  LYS138      0.1093
     99  NZ        13.3280  115.3570   77.0500 N.3   138  LYS138     -0.1314
    100  N          4.8510  118.3680   71.0130 N.3   141  GLN141     -0.1245
    101  CA         4.6550  118.0450   69.6200 C.3   141  GLN141      0.1566
    102  C          3.5270  118.7570   68.9410 C.2   141  GLN141      0.2260
    103  O          3.3270  118.5610   67.7300 O.2   141  GLN141     -0.2867
    104  CB         4.5090  116.5380   69.4260 C.3   141  GLN141      0.0367
    105  CG         3.3560  115.9220   70.1380 C.3   141  GLN141      0.0905
    106  CD         3.5330  114.4460   70.2290 C.2   141  GLN141      0.2608
    107  OE1        2.7410  113.6730   69.7110 O.2   141  GLN141     -0.2717
    108  NE2        4.6090  114.0380   70.8770 N.am  141  GLN141     -0.0878
    109  N         11.5580  117.5370   70.4260 N.3   168  ARG168     -0.1245
    110  CA        11.2690  116.1230   70.2770 C.3   168  ARG168      0.1563
    111  C         10.5020  115.8650   68.9740 C.2   168  ARG168      0.2260
    112  O          9.8170  114.8650   68.8690 O.2   168  ARG168     -0.2867
    113  CB        10.4030  115.6710   71.4520 C.3   168  ARG168      0.0307
    114  CG         8.9730  116.2790   71.4520 C.3   168  ARG168      0.0489
    115  CD         7.9900  115.5490   72.3710 C.3   168  ARG168      0.2205
    116  NE         8.2110  114.1020   72.3290 N.pl3 168  ARG168     -0.0865
    117  CZ         7.8910  113.3140   71.3110 C.cat 168  ARG168      0.5346
    118  NH1        7.2980  113.8260   70.2490 N.pl3 168  ARG168      0.1354
    119  NH2        8.3030  112.0540   71.2980 N.pl3 168  ARG168      0.1354
    120  N         -0.6660  109.6750   64.4670 N.3   175  ASP175     -0.1239
    121  CA         0.5010  108.9190   64.9190 C.3   175  ASP175      0.1674
    122  C          1.7790  108.8320   64.0810 C.2   175  ASP175      0.2266
    123  O          2.0290  107.8430   63.3860 O.2   175  ASP175     -0.2867
    124  CB         0.1000  107.5650   65.4820 C.3   175  ASP175      0.1410
    125  CG        -0.0400  107.6120   66.9790 C.2   175  ASP175      0.3668
    126  OD1        0.8200  107.0460   67.6870 O.co2 175  ASP175     -0.2456
    127  OD2       -0.9790  108.2910   67.4490 O.co2 175  ASP175     -0.2456
    128  N          5.6930  111.5940   63.9590 N.3   177  LEU177     -0.1245
    129  CA         6.3400  112.8430   64.3450 C.3   177  LEU177      0.1561
    130  C          7.2800  113.1630   63.2140 C.2   177  LEU177      0.2260
    131  O          7.5410  112.2960   62.3860 O.2   177  LEU177     -0.2867
    132  CB         7.1970  112.6290   65.5770 C.3   177  LEU177      0.0270
    133  CG         6.6100  112.2290   66.9170 C.3   177  LEU177      0.0019
    134  CD1        7.7140  111.8060   67.8740 C.3   177  LEU177      0.0001
    135  CD2        5.8550  113.3900   67.4840 C.3   177  LEU177      0.0001
    136  N         13.2990  110.2010   71.4200 N.3   202  HIS202     -0.1241
    137  CA        11.8420  110.2660   71.3610 C.3   202  HIS202      0.1621
    138  C         11.4760  110.6590   69.9550 C.2   202  HIS202      0.2264
    139  O         10.8990  109.8700   69.2280 O.2   202  HIS202     -0.2867
    140  CB        11.2690  111.2510   72.3600 C.3   202  HIS202      0.0745
    141  CG        11.2390  110.7250   73.7490 C.ar  202  HIS202      0.0817
    142  ND1       10.2200  111.0000   74.6320 N.ar  202  HIS202     -0.2268
    143  CD2       12.1010  109.9150   74.4110 C.ar  202  HIS202      0.1154
    144  CE1       10.4510  110.3830   75.7780 C.ar  202  HIS202      0.1986
    145  NE2       11.5890  109.7170   75.6690 N.ar  202  HIS202     -0.2212
    146  N         10.6240  107.9780   66.4730 N.3   205  GLN205     -0.1231
    147  CA         9.9820  106.7550   66.9460 C.3   205  GLN205      0.1698
    148  C          8.6780  106.4990   66.1960 C.2   205  GLN205      0.2592
    149  O          8.4850  105.4170   65.6350 O.2   205  GLN205     -0.2718
    150  CB         9.7530  106.7600   68.4690 C.3   205  GLN205      0.0381
    151  CG         8.5580  107.5610   68.9940 C.3   205  GLN205      0.0905
    152  CD         7.3500  106.7180   69.3620 C.2   205  GLN205      0.2608
    153  OE1        6.6460  106.2220   68.4910 O.2   205  GLN205     -0.2717
    154  NE2        7.0610  106.6170   70.6570 N.am  205  GLN205     -0.0878
    155  N          7.8330  107.5610   66.2780 N.am  206  CYS206     -0.1970
    156  CA         6.6400  107.3560   65.5370 C.3   206  CYS206      0.1712
    157  C          7.1140  107.6790   64.1270 C.2   206  CYS206      0.2296
    158  O          6.4380  107.4020   63.1520 O.2   206  CYS206     -0.2864
    159  CB         5.5570  108.3300   65.9670 C.3   206  CYS206      0.0983
    160  SG         5.3120  108.3380   67.7590 S.3   206  CYS206     -0.0798
    161  N         14.2170   98.2140   78.4360 N.3   246  HIS246     -0.1226
    162  CA        12.9730   97.5960   78.8620 C.3   246  HIS246      0.1752
    163  C         11.9160   98.6770   78.5910 C.2   246  HIS246      0.2595
    164  O         10.7910   98.3790   78.2040 O.2   246  HIS246     -0.2718
    165  CB        13.0240   97.2870   80.3700 C.3   246  HIS246      0.0759
    166  CG        13.7330   96.0130   80.7150 C.ar  246  HIS246      0.0818
    167  ND1       14.9140   95.6220   80.1230 N.ar  246  HIS246     -0.2268
    168  CD2       13.4250   95.0450   81.6140 C.ar  246  HIS246      0.1154
    169  CE1       15.3150   94.4720   80.6470 C.ar  246  HIS246      0.1986
    170  NE2       14.4290   94.1020   81.5530 N.ar  246  HIS246     -0.2212
    171  N         12.3190   99.9410   78.7680 N.am  247  ALA247     -0.1980
    172  CA        11.4270  101.0660   78.5630 C.3   247  ALA247      0.1597
    173  C         11.6250  101.7260   77.2080 C.2   247  ALA247      0.2287
    174  O         11.1410  102.8350   76.9670 O.2   247  ALA247     -0.2864
    175  CB        11.5950  102.0660   79.6730 C.3   247  ALA247      0.0319
    176  N          9.8520   98.8190   73.7860 N.3   250  ASP250     -0.1225
    177  CA         8.3790   98.8610   73.8210 C.3   250  ASP250      0.1805
    178  C          7.7880  100.2870   74.0520 C.2   250  ASP250      0.2598
    179  O          6.6480  100.5800   73.6540 O.2   250  ASP250     -0.2718
    180  CB         7.8800   97.9340   74.9230 C.3   250  ASP250      0.1424
    181  CG         8.6990   98.0480   76.1860 C.2   250  ASP250      0.3668
    182  OD1        9.5050   97.1250   76.4470 O.co2 250  ASP250     -0.2456
    183  OD2        8.5500   99.0560   76.9100 O.co2 250  ASP250     -0.2456
    184  N          8.5380  101.1280   74.7690 N.am  251  GLY251     -0.1943
    185  CA         8.1150  102.4960   75.0320 C.3   251  GLY251      0.1998
    186  C          8.1430  103.3350   73.7620 C.2   251  GLY251      0.2480
    187  O          7.0990  103.4910   73.1290 O.2   251  GLY251     -0.2729
    188  N          9.2800  104.0060   73.4580 N.am  252  PRO252     -0.2726
    189  CA         9.4990  104.8500   72.2730 C.3   252  PRO252      0.1402
    190  C         10.5330  104.2480   71.2790 C.2   252  PRO252      0.2269
    191  O         10.1660  103.4990   70.3560 O.2   252  PRO252     -0.2865
    192  CB         9.9670  106.1740   72.8860 C.3   252  PRO252      0.0296
    193  CG        10.7970  105.7390   74.0430 C.3   252  PRO252      0.0237
    194  CD        10.2240  104.3830   74.5260 C.3   252  PRO252      0.0939
@<TRIPOS>BOND
     1   131   130    2
     2   158   157    2
     3   130   129    1
     4   123   122    2
     5   128   129    1
     6   122   121    1
     7   157   156    1
     8   129   132    1
     9   120   121    1
    10   121   124    1
    11   124   125    1
    12   156   159    1
    13   156   155    1
    14   132   133    1
    15   149   148    2
    16   159   160    1
    17   148   155   am
    18   148   147    1
    19   146   147    1
    20   133   135    1
    21   133   134    1
    22   147   150    1
    23   125   127   ar
    24   125   126   ar
    25   103   102    2
    26   150   151    1
    27   153   152    2
    28   112   111    2
    29   102   101    1
    30   111   110    1
    31   151   152    1
    32   139   138    2
    33   152   154   am
    34   104   101    1
    35   104   105    1
    36   101   100    1
    37   107   106    2
    38   138   137    1
    39   105   106    1
    40   106   108   am
    41   118   117    1
    42   110   109    1
    43   110   113    1
    44   191   190    2
    45   190   189    1
    46   119   117    1
    47   117   116    2
    48   137   136    1
    49   137   140    1
    50   113   114    1
    51   114   115    1
    52   189   192    1
    53   189   188    1
    54   116   115    1
    55   140   141    1
    56   192   193    1
    57   187   186    2
    58   188   186   am
    59   188   194    1
    60   179   178    2
    61   141   143   ar
    62   141   142   ar
    63   186   185    1
    64   176   177    1
    65   177   178    1
    66   177   180    1
    67   193   194    1
    68   178   184   am
    69   143   145   ar
    70   142   144   ar
    71   184   185    1
    72   180   181    1
    73   145   144   ar
    74    93    94    2
    75    93    92    1
    76    90    88   ar
    77    90    89   ar
    78    88    86   ar
    79    79    76    1
    80   181   182   ar
    81   181   183   ar
    82    40    39    1
    83    40    41    2
    84    96    97    1
    85    96    95    1
    86    92    95    1
    87    92    91    1
    88    98    99    1
    89    98    97    1
    90    39    38    1
    91    43    41    1
    92   174   173    2
    93    89    87   ar
    94    86    85   ar
    95    41    42    1
    96   173   172    1
    97    76    77    1
    98    76    75    1
    99    38    37    1
   100    78    77    2
   101    77    80   am
   102     8     6   am
   103    87    85   ar
   104    85    84    1
   105   164   163    2
   106    80    81    1
   107   161   162    1
   108    75    70   am
   109   172   171    1
   110   172   175    1
   111   163   171   am
   112   163   162    1
   113    81    84    1
   114    81    82    1
   115   162   165    1
   116    37    34    1
   117    31    30    2
   118     5     6    1
   119     5     2    1
   120     6     7    2
   121    34    33    1
   122    34    35    1
   123     1     2    1
   124    70    71    2
   125    70    69    1
   126    30    29    1
   127    30    32   am
   128    82    83    2
   129    29    26    1
   130    33    27   am
   131     2     3    1
   132   167   169   ar
   133   167   166   ar
   134    49    48    1
   135   165   166    1
   136    35    44   am
   137    35    36    2
   138    27    26    1
   139    27    28    2
   140   169   170   ar
   141    69    72    1
   142    69    68    1
   143   166   168   ar
   144    44    45    1
   145    26    25    1
   146     3     9   am
   147     3     4    2
   148    48    45    1
   149   170   168   ar
   150    72    73    1
   151    45    46    1
   152    68    74    1
   153     9    10    1
   154    15    13    1
   155    73    74    1
   156    46    47    2
   157    10    13    1
   158    10    11    1
   159    13    14    1
   160    12    11    2
   161    19    18    2
   162    54    55    1
   163    54    51    1
   164    53    52    2
   165    62    64   ar
   166    62    61   ar
   167    60    61    1
   168    60    57    1
   169    64    66   ar
   170    18    17    1
   171    61    63   ar
   172    66    67    1
   173    66    65   ar
   174    59    58    2
   175    21    22    1
   176    21    20    1
   177    63    65   ar
   178    52    51    1
   179    52    56   am
   180    51    50    1
   181    17    20    1
   182    17    16    1
   183    22    23    1
   184    57    56    1
   185    57    58    1
   186    23    24    1
