@<TRIPOS>MOLECULE
tmp/1g8hA00.pdb
 187 183 0 0 0
SMALL
GASTEIGER

@<TRIPOS>ATOM
      1  N        108.2830  193.1910  150.6320 N.3   193  PHE193     -0.1227
      2  CA       107.1540  192.4950  150.0200 C.3   193  PHE193      0.1736
      3  C        105.8420  193.2200  150.3400 C.2   193  PHE193      0.2595
      4  O        105.4170  193.2930  151.4840 O.2   193  PHE193     -0.2718
      5  CB       107.0860  191.0550  150.5330 C.3   193  PHE193      0.0547
      6  CG       105.9110  190.2700  150.0050 C.ar  193  PHE193     -0.0202
      7  CD1      105.8290  189.9290  148.6580 C.ar  193  PHE193     -0.0042
      8  CD2      104.9020  189.8340  150.8660 C.ar  193  PHE193     -0.0042
      9  CE1      104.7560  189.1580  148.1790 C.ar  193  PHE193     -0.0003
     10  CE2      103.8350  189.0700  150.3960 C.ar  193  PHE193     -0.0003
     11  CZ       103.7620  188.7300  149.0530 C.ar  193  PHE193     -0.0000
     12  N        105.2170  193.7710  149.3150 N.am  194  GLN194     -0.1965
     13  CA       103.9520  194.4660  149.4600 C.3   194  GLN194      0.1733
     14  C        102.8420  193.4220  149.5120 C.2   194  GLN194      0.2617
     15  O        103.0120  192.3070  149.0120 O.2   194  GLN194     -0.2715
     16  CB       103.7680  195.3990  148.2570 C.3   194  GLN194      0.0408
     17  CG       102.3490  195.5790  147.7250 C.3   194  GLN194      0.0908
     18  CD       101.4380  196.3670  148.6530 C.2   194  GLN194      0.2608
     19  OE1      101.8770  197.2860  149.3480 O.2   194  GLN194     -0.2717
     20  NE2      100.1600  196.0270  148.6450 N.am  194  GLN194     -0.0878
     21  N        101.7180  193.7680  150.1370 N.am  195  THR195     -0.1937
     22  CA       100.5750  192.8560  150.2070 C.3   195  THR195      0.2028
     23  C         99.3600  193.4450  150.9040 C.2   195  THR195      0.2642
     24  O         99.4700  194.3310  151.7580 O.2   195  THR195     -0.2714
     25  CB       100.9190  191.5070  150.9090 C.3   195  THR195      0.1808
     26  OG1       99.7800  190.6420  150.8440 O.3   195  THR195     -0.2208
     27  CG2      101.2780  191.7110  152.3640 C.3   195  THR195      0.0379
     28  N         98.1950  192.9440  150.5110 N.am  196  ARG196     -0.1963
     29  CA        96.9200  193.3620  151.0790 C.3   196  ARG196      0.1729
     30  C         96.0620  192.1250  151.3190 C.2   196  ARG196      0.2616
     31  O         94.9000  192.2360  151.7090 O.2   196  ARG196     -0.2715
     32  CB        96.1950  194.3190  150.1360 C.3   196  ARG196      0.0348
     33  CG        96.3680  193.9790  148.6800 C.3   196  ARG196      0.0492
     34  CD        95.4330  194.7920  147.8230 C.3   196  ARG196      0.2205
     35  NE        94.1630  194.1020  147.6480 N.pl3 196  ARG196     -0.0865
     36  CZ        94.0020  193.0240  146.8900 C.cat 196  ARG196      0.5346
     37  NH1       92.8150  192.4470  146.7910 N.pl3 196  ARG196      0.1354
     38  NH2       95.0280  192.5310  146.2140 N.pl3 196  ARG196      0.1354
     39  N         96.6490  190.9520  151.0860 N.am  197  ASN197     -0.1972
     40  CA        95.9630  189.6780  151.2750 C.3   197  ASN197      0.1688
     41  C         96.7080  188.8340  152.2610 C.2   197  ASN197      0.2292
     42  O         97.8510  189.1120  152.5760 O.2   197  ASN197     -0.2864
     43  CB        95.8940  188.8990  149.9710 C.3   197  ASN197      0.1181
     44  CG        94.8130  189.3930  149.0740 C.2   197  ASN197      0.2629
     45  OD1       95.0140  189.5650  147.8760 O.2   197  ASN197     -0.2716
     46  ND2       93.6450  189.6250  149.6450 N.am  197  ASN197     -0.0877
     47  N        102.4700  179.9190  148.7400 N.3   202  ALA202     -0.1231
     48  CA       103.0990  180.4550  147.5330 C.3   202  ALA202      0.1694
     49  C        103.9240  181.7010  147.8640 C.2   202  ALA202      0.2592
     50  O        105.0870  181.8290  147.4640 O.2   202  ALA202     -0.2718
     51  CB       102.0430  180.7850  146.4890 C.3   202  ALA202      0.0304
     52  N        103.3120  182.6070  148.6140 N.am  203  HIS203     -0.1976
     53  CA       103.9530  183.8440  149.0230 C.3   203  HIS203      0.1656
     54  C        105.2100  183.6030  149.8660 C.2   203  HIS203      0.2291
     55  O        106.2500  184.2130  149.6200 O.2   203  HIS203     -0.2864
     56  CB       102.9350  184.6700  149.7870 C.3   203  HIS203      0.0771
     57  CG       101.6410  184.8290  149.0540 C.ar  203  HIS203      0.0820
     58  ND1      101.4720  185.7300  148.0220 N.ar  203  HIS203     -0.2267
     59  CD2      100.4610  184.1780  149.1790 C.ar  203  HIS203      0.1154
     60  CE1      100.2440  185.6310  147.5470 C.ar  203  HIS203      0.1986
     61  NE2       99.6100  184.6950  148.2310 N.ar  203  HIS203     -0.2212
     62  N        107.7710  182.5800  147.5700 N.3   206  LEU206     -0.1245
     63  CA       108.0950  183.7140  146.7280 C.3   206  LEU206      0.1561
     64  C        109.0640  184.6310  147.4610 C.2   206  LEU206      0.2260
     65  O        110.1310  184.9560  146.9430 O.2   206  LEU206     -0.2867
     66  CB       106.8200  184.4750  146.3860 C.3   206  LEU206      0.0270
     67  CG       106.9110  185.6390  145.3970 C.3   206  LEU206      0.0019
     68  CD1      105.5020  186.0550  144.9990 C.3   206  LEU206      0.0001
     69  CD2      107.6760  186.8130  146.0140 C.3   206  LEU206      0.0001
     70  N         95.9070  202.2930  149.4930 N.3   262  MET262     -0.1245
     71  CA        96.0730  201.8970  148.1050 C.3   262  MET262      0.1570
     72  C         95.0070  202.4850  147.1960 C.2   262  MET262      0.2261
     73  O         93.9590  202.9440  147.6490 O.2   262  MET262     -0.2867
     74  CB        96.0260  200.3780  147.9820 C.3   262  MET262      0.0387
     75  CG        97.1420  199.6520  148.6910 C.3   262  MET262      0.0595
     76  SD        96.9920  197.8830  148.4460 S.3   262  MET262     -0.1393
     77  CE        97.4140  197.7280  146.7120 C.3   262  MET262      0.0692
     78  N         94.7360  200.6620  144.1810 N.3   264  MET264     -0.1245
     79  CA        94.5870  199.4760  143.3360 C.3   264  MET264      0.1570
     80  C         94.8870  199.9160  141.9100 C.2   264  MET264      0.2261
     81  O         94.2180  199.4920  140.9650 O.2   264  MET264     -0.2867
     82  CB        93.1580  198.9250  143.4010 C.3   264  MET264      0.0387
     83  CG        92.7020  198.5150  144.7820 C.3   264  MET264      0.0595
     84  SD        93.8650  197.3990  145.5590 S.3   264  MET264     -0.1393
     85  CE        93.8670  196.0150  144.3620 C.3   264  MET264      0.0692
     86  N        109.7720  193.6180  145.6280 N.3   286  ILE286     -0.1231
     87  CA       109.1760  192.5550  144.8120 C.3   286  ILE286      0.1692
     88  C        108.0010  193.0710  143.9730 C.2   286  ILE286      0.2592
     89  O        107.2510  193.9370  144.4030 O.2   286  ILE286     -0.2718
     90  CB       108.6530  191.3920  145.7080 C.3   286  ILE286      0.0266
     91  CG1      109.8200  190.7150  146.4290 C.3   286  ILE286      0.0019
     92  CG2      107.8790  190.3920  144.8650 C.3   286  ILE286      0.0020
     93  CD1      109.4120  189.7000  147.4770 C.3   286  ILE286      0.0001
     94  N        107.8570  192.5510  142.7670 N.am  287  VAL287     -0.1966
     95  CA       106.7420  192.9340  141.9120 C.3   287  VAL287      0.1727
     96  C        106.3270  191.6720  141.1600 C.2   287  VAL287      0.2617
     97  O        106.9560  191.2820  140.1730 O.2   287  VAL287     -0.2715
     98  CB       107.1260  194.0650  140.9160 C.3   287  VAL287      0.0290
     99  CG1      105.9530  194.3770  139.9900 C.3   287  VAL287      0.0023
    100  CG2      107.5090  195.3210  141.6880 C.3   287  VAL287      0.0023
    101  N        105.2800  191.0240  141.6640 N.am  288  GLY288     -0.1940
    102  CA       104.7970  189.7980  141.0650 C.3   288  GLY288      0.2014
    103  C        103.7270  190.0310  140.0230 C.2   288  GLY288      0.2639
    104  O        103.6630  191.1050  139.4210 O.2   288  GLY288     -0.2714
    105  N        102.8790  189.0220  139.8220 N.am  289  ARG289     -0.1963
    106  CA       101.7990  189.0780  138.8370 C.3   289  ARG289      0.1729
    107  C        100.6470  189.9770  139.2810 C.2   289  ARG289      0.2616
    108  O        100.2120  189.9270  140.4310 O.2   289  ARG289     -0.2715
    109  CB       101.2600  187.6710  138.5830 C.3   289  ARG289      0.0348
    110  CG       100.5830  187.4800  137.2350 C.3   289  ARG289      0.0492
    111  CD        99.7360  186.2200  137.2460 C.3   289  ARG289      0.2205
    112  NE        98.4810  186.4660  137.9480 N.pl3 289  ARG289     -0.0865
    113  CZ        97.3540  186.8440  137.3470 C.cat 289  ARG289      0.5346
    114  NH1       96.2560  187.0620  138.0620 N.pl3 289  ARG289      0.1354
    115  NH2       97.3170  186.9740  136.0230 N.pl3 289  ARG289      0.1354
    116  N        100.1580  190.7950  138.3550 N.am  290  ASP290     -0.1957
    117  CA        99.0550  191.7070  138.6190 C.3   290  ASP290      0.1840
    118  C         99.2560  192.4500  139.9430 C.2   290  ASP290      0.2622
    119  O         98.3620  192.4870  140.8000 O.2   290  ASP290     -0.2715
    120  CB        97.7290  190.9340  138.6370 C.3   290  ASP290      0.1450
    121  CG        96.5110  191.8480  138.5060 C.2   290  ASP290      0.3671
    122  OD1       95.3890  191.4060  138.8580 O.co2 290  ASP290     -0.2456
    123  OD2       96.6690  193.0030  138.0420 O.co2 290  ASP290     -0.2456
    124  N        100.4430  193.0410  140.0940 N.am  291  HIS291     -0.1959
    125  CA       100.8060  193.8020  141.2900 C.3   291  HIS291      0.1787
    126  C         99.8850  195.0050  141.4090 C.2   291  HIS291      0.2620
    127  O         99.7670  195.7940  140.4760 O.2   291  HIS291     -0.2715
    128  CB       102.2660  194.2660  141.1950 C.3   291  HIS291      0.0785
    129  CG       102.7850  194.9310  142.4360 C.ar  291  HIS291      0.0821
    130  ND1      102.3170  196.1460  142.8850 N.ar  291  HIS291     -0.2267
    131  CD2      103.7370  194.5500  143.3190 C.ar  291  HIS291      0.1154
    132  CE1      102.9530  196.4820  143.9940 C.ar  291  HIS291      0.1986
    133  NE2      103.8200  195.5280  144.2800 N.ar  291  HIS291     -0.2212
    134  N         99.2280  195.1210  142.5610 N.am  292  ALA292     -0.1963
    135  CA        98.3030  196.2150  142.8490 C.3   292  ALA292      0.1728
    136  C         97.1210  196.2700  141.8890 C.2   292  ALA292      0.2616
    137  O         96.4860  197.3160  141.7430 O.2   292  ALA292     -0.2715
    138  CB        99.0410  197.5490  142.8380 C.3   292  ALA292      0.0334
    139  N         96.8210  195.1370  141.2510 N.am  293  GLY293     -0.1955
    140  CA        95.7150  195.0760  140.3120 C.3   293  GLY293      0.1869
    141  C         94.4050  194.6290  140.9350 C.2   293  GLY293      0.2309
    142  O         94.3870  193.7540  141.7950 O.2   293  GLY293     -0.2863
    143  N        108.6550  188.8010  139.6010 N.3   327  PHE327     -0.1227
    144  CA       108.2320  187.4140  139.6810 C.3   327  PHE327      0.1736
    145  C        107.0670  187.1490  138.7490 C.2   327  PHE327      0.2595
    146  O        106.1830  187.9820  138.5830 O.2   327  PHE327     -0.2718
    147  CB       107.8160  187.0740  141.1040 C.3   327  PHE327      0.0547
    148  CG       108.9440  186.6250  141.9670 C.ar  327  PHE327     -0.0202
    149  CD1      109.4040  185.3150  141.8980 C.ar  327  PHE327     -0.0042
    150  CD2      109.5550  187.5090  142.8530 C.ar  327  PHE327     -0.0042
    151  CE1      110.4580  184.8860  142.7000 C.ar  327  PHE327     -0.0003
    152  CE2      110.6090  187.0940  143.6580 C.ar  327  PHE327     -0.0003
    153  CZ       111.0610  185.7780  143.5810 C.ar  327  PHE327     -0.0000
    154  N        107.0830  185.9770  138.1350 N.am  328  ARG328     -0.1966
    155  CA       106.0270  185.5640  137.2310 C.3   328  ARG328      0.1729
    156  C        105.1620  184.6790  138.1030 C.2   328  ARG328      0.2616
    157  O        105.5750  184.2910  139.1950 O.2   328  ARG328     -0.2715
    158  CB       106.5980  184.7380  136.0780 C.3   328  ARG328      0.0348
    159  CG       108.0970  184.9190  135.8730 C.3   328  ARG328      0.0492
    160  CD       108.9050  184.4280  137.0890 C.3   328  ARG328      0.2205
    161  NE       110.3210  184.7790  136.9950 N.pl3 328  ARG328     -0.0865
    162  CZ       111.2210  184.5560  137.9510 C.cat 328  ARG328      0.5346
    163  NH1      112.4880  184.9140  137.7670 N.pl3 328  ARG328      0.1354
    164  NH2      110.8630  183.9780  139.0900 N.pl3 328  ARG328      0.1354
    165  N        103.9670  184.3700  137.6280 N.am  329  MET329     -0.1963
    166  CA       103.0480  183.5120  138.3570 C.3   329  MET329      0.1736
    167  C        103.7730  182.4120  139.1470 C.2   329  MET329      0.2616
    168  O        104.4790  181.5860  138.5690 O.2   329  MET329     -0.2715
    169  CB       102.0910  182.8650  137.3560 C.3   329  MET329      0.0427
    170  CG       101.1400  181.8510  137.9480 C.3   329  MET329      0.0599
    171  SD        99.7790  182.6730  138.7510 S.3   329  MET329     -0.1393
    172  CE        98.6910  182.9370  137.3210 C.3   329  MET329      0.0692
    173  N        103.6190  182.4040  140.4660 N.am  330  VAL330     -0.1977
    174  CA       104.2380  181.3520  141.2720 C.3   330  VAL330      0.1596
    175  C        103.1550  180.3230  141.5550 C.2   330  VAL330      0.2287
    176  O        102.1850  180.6170  142.2420 O.2   330  VAL330     -0.2864
    177  CB       104.7790  181.8800  142.6090 C.3   330  VAL330      0.0276
    178  CG1      105.0730  180.7140  143.5420 C.3   330  VAL330      0.0022
    179  CG2      106.0450  182.6740  142.3720 C.3   330  VAL330      0.0022
    180  N         96.7120  175.5920  141.1960 N.3   354  ASN354     -0.1240
    181  CA        96.5130  176.9510  141.6780 C.3   354  ASN354      0.1653
    182  C         95.0930  177.2070  142.2210 C.2   354  ASN354      0.2266
    183  O         94.1030  177.0320  141.5060 O.2   354  ASN354     -0.2867
    184  CB        96.8340  177.9200  140.5380 C.3   354  ASN354      0.1155
    185  CG        96.6380  179.3650  140.9270 C.2   354  ASN354      0.2627
    186  OD1       95.5140  179.8110  141.1560 O.2   354  ASN354     -0.2716
    187  ND2       97.7350  180.1090  141.0060 N.am  354  ASN354     -0.0877
@<TRIPOS>BOND
     1   159   158    1
     2   159   160    1
     3   115   113    1
     4   158   155    1
     5   161   160    1
     6   161   162    2
     7   155   156    1
     8   155   154    1
     9   110   111    1
    10   110   109    1
    11   111   112    1
    12   172   171    1
    13   113   112    2
    14   113   114    1
    15   169   170    1
    16   169   166    1
    17   165   156   am
    18   165   166    1
    19   163   162    1
    20   170   171    1
    21   162   164    1
    22   123   121   ar
    23   156   157    2
    24   154   145   am
    25   116   117    1
    26   116   107   am
    27   166   167    1
    28   121   120    1
    29   121   122   ar
    30   168   167    2
    31   109   106    1
    32   146   145    2
    33   117   120    1
    34   117   118    1
    35   145   144    1
    36   106   107    1
    37   106   105    1
    38   167   173   am
    39   107   108    2
    40   104   103    2
    41   143   144    1
    42   144   147    1
    43   105   103   am
    44   118   124   am
    45   118   119    2
    46    99    98    1
    47   103   102    1
    48   124   125    1
    49    97    96    2
    50   140   141    1
    51   140   139    1
    52   173   174    1
    53   127   126    2
    54   184   185    1
    55   184   181    1
    56    98   100    1
    57    98    95    1
    58   185   187   am
    59   185   186    2
    60   141   142    2
    61    81    80    2
    62   102   101    1
    63   147   148    1
    64    96   101   am
    65    96    95    1
    66   128   125    1
    67   128   129    1
    68   180   181    1
    69   139   136   am
    70   174   175    1
    71   174   177    1
    72   125   126    1
    73   126   134   am
    74   183   182    2
    75   175   176    2
    76   181   182    1
    77   137   136    2
    78   136   135    1
    79   149   148   ar
    80   149   151   ar
    81    80    79    1
    82    95    94    1
    83   148   150   ar
    84   179   177    1
    85   129   130   ar
    86   129   131   ar
    87   134   135    1
    88   177   178    1
    89   151   153   ar
    90    94    88   am
    91   138   135    1
    92   150   152   ar
    93   130   132   ar
    94   131   133   ar
    95    79    82    1
    96    79    78    1
    97    82    83    1
    98   153   152   ar
    99    88    89    2
   100    88    87    1
   101   132   133   ar
   102    85    84    1
   103    83    84    1
   104    87    86    1
   105    87    90    1
   106    92    90    1
   107    68    67    1
   108    67    69    1
   109    67    66    1
   110    90    91    1
   111    38    36    1
   112    66    63    1
   113    91    93    1
   114    51    48    1
   115    77    76    1
   116    63    64    1
   117    63    62    1
   118    37    36    1
   119    36    35    2
   120    65    64    2
   121    72    73    2
   122    72    71    1
   123    50    49    2
   124    48    49    1
   125    48    47    1
   126    60    58   ar
   127    60    61   ar
   128    35    34    1
   129    17    16    1
   130    17    18    1
   131    34    33    1
   132    49    52   am
   133    45    44    2
   134    74    71    1
   135    74    75    1
   136    58    57   ar
   137    71    70    1
   138     9     7   ar
   139     9    11   ar
   140    61    59   ar
   141    16    13    1
   142    76    75    1
   143    52    53    1
   144    20    18   am
   145    18    19    2
   146     7     6   ar
   147    33    32    1
   148    15    14    2
   149    53    56    1
   150    53    54    1
   151    11    10   ar
   152    57    59   ar
   153    57    56    1
   154    44    46   am
   155    44    43    1
   156    12    13    1
   157    12     3   am
   158    13    14    1
   159    14    21   am
   160    55    54    2
   161    43    40    1
   162     6     5    1
   163     6     8   ar
   164     2     3    1
   165     2     5    1
   166     2     1    1
   167    32    29    1
   168    21    22    1
   169    22    23    1
   170    22    25    1
   171     3     4    2
   172    10     8   ar
   173    28    23   am
   174    28    29    1
   175    26    25    1
   176    23    24    2
   177    25    27    1
   178    29    30    1
   179    39    40    1
   180    39    30   am
   181    40    41    1
   182    30    31    2
   183    41    42    2
