@<TRIPOS>MOLECULE
tmp/1g8hA01.pdb
 116 111 0 0 0
SMALL
GASTEIGER

@<TRIPOS>ATOM
      1  N         96.6490  190.9520  151.0860 N.3   197  ASN197     -0.1240
      2  CA        95.9630  189.6780  151.2750 C.3   197  ASN197      0.1653
      3  C         96.7080  188.8340  152.2610 C.2   197  ASN197      0.2266
      4  O         97.8510  189.1120  152.5760 O.2   197  ASN197     -0.2867
      5  CB        95.8940  188.8990  149.9710 C.3   197  ASN197      0.1155
      6  CG        94.8130  189.3930  149.0740 C.2   197  ASN197      0.2627
      7  OD1       95.0140  189.5650  147.8760 O.2   197  ASN197     -0.2716
      8  ND2       93.6450  189.6250  149.6450 N.am  197  ASN197     -0.0877
      9  N         99.9410  182.9920  151.9170 N.3   200  HIS200     -0.1241
     10  CA        99.8170  181.5410  151.8850 C.3   200  HIS200      0.1621
     11  C        101.1780  180.9590  151.5000 C.2   200  HIS200      0.2264
     12  O        102.1590  181.6930  151.3490 O.2   200  HIS200     -0.2867
     13  CB        98.7380  181.1280  150.8820 C.3   200  HIS200      0.0745
     14  CG        97.3830  181.6830  151.2010 C.ar  200  HIS200      0.0817
     15  ND1       96.7010  181.3670  152.3580 N.ar  200  HIS200     -0.2268
     16  CD2       96.5940  182.5540  150.5260 C.ar  200  HIS200      0.1154
     17  CE1       95.5520  182.0190  152.3830 C.ar  200  HIS200      0.1986
     18  NE2       95.4620  182.7460  151.2830 N.ar  200  HIS200     -0.2212
     19  N        102.4700  179.9190  148.7400 N.3   202  ALA202     -0.1231
     20  CA       103.0990  180.4550  147.5330 C.3   202  ALA202      0.1694
     21  C        103.9240  181.7010  147.8640 C.2   202  ALA202      0.2592
     22  O        105.0870  181.8290  147.4640 O.2   202  ALA202     -0.2718
     23  CB       102.0430  180.7850  146.4890 C.3   202  ALA202      0.0304
     24  N        103.3120  182.6070  148.6140 N.am  203  HIS203     -0.1976
     25  CA       103.9530  183.8440  149.0230 C.3   203  HIS203      0.1656
     26  C        105.2100  183.6030  149.8660 C.2   203  HIS203      0.2291
     27  O        106.2500  184.2130  149.6200 O.2   203  HIS203     -0.2864
     28  CB       102.9350  184.6700  149.7870 C.3   203  HIS203      0.0771
     29  CG       101.6410  184.8290  149.0540 C.ar  203  HIS203      0.0820
     30  ND1      101.4720  185.7300  148.0220 N.ar  203  HIS203     -0.2267
     31  CD2      100.4610  184.1780  149.1790 C.ar  203  HIS203      0.1154
     32  CE1      100.2440  185.6310  147.5470 C.ar  203  HIS203      0.1986
     33  NE2       99.6100  184.6950  148.2310 N.ar  203  HIS203     -0.2212
     34  N        102.8790  189.0220  139.8220 N.3   289  ARG289     -0.1245
     35  CA       101.7990  189.0780  138.8370 C.3   289  ARG289      0.1563
     36  C        100.6470  189.9770  139.2810 C.2   289  ARG289      0.2260
     37  O        100.2120  189.9270  140.4310 O.2   289  ARG289     -0.2867
     38  CB       101.2600  187.6710  138.5830 C.3   289  ARG289      0.0307
     39  CG       100.5830  187.4800  137.2350 C.3   289  ARG289      0.0489
     40  CD        99.7360  186.2200  137.2460 C.3   289  ARG289      0.2205
     41  NE        98.4810  186.4660  137.9480 N.pl3 289  ARG289     -0.0865
     42  CZ        97.3540  186.8440  137.3470 C.cat 289  ARG289      0.5346
     43  NH1       96.2560  187.0620  138.0620 N.pl3 289  ARG289      0.1354
     44  NH2       97.3170  186.9740  136.0230 N.pl3 289  ARG289      0.1354
     45  N        103.9670  184.3700  137.6280 N.3   329  MET329     -0.1230
     46  CA       103.0480  183.5120  138.3570 C.3   329  MET329      0.1702
     47  C        103.7730  182.4120  139.1470 C.2   329  MET329      0.2592
     48  O        104.4790  181.5860  138.5690 O.2   329  MET329     -0.2718
     49  CB       102.0910  182.8650  137.3560 C.3   329  MET329      0.0401
     50  CG       101.1400  181.8510  137.9480 C.3   329  MET329      0.0596
     51  SD        99.7790  182.6730  138.7510 S.3   329  MET329     -0.1393
     52  CE        98.6910  182.9370  137.3210 C.3   329  MET329      0.0692
     53  N        103.6190  182.4040  140.4660 N.am  330  VAL330     -0.1980
     54  CA       104.2380  181.3520  141.2720 C.3   330  VAL330      0.1595
     55  C        103.1550  180.3230  141.5550 C.2   330  VAL330      0.2287
     56  O        102.1850  180.6170  142.2420 O.2   330  VAL330     -0.2864
     57  CB       104.7790  181.8800  142.6090 C.3   330  VAL330      0.0276
     58  CG1      105.0730  180.7140  143.5420 C.3   330  VAL330      0.0022
     59  CG2      106.0450  182.6740  142.3720 C.3   330  VAL330      0.0022
     60  N        106.5600  174.8150  145.1830 N.3   339  TYR339     -0.1241
     61  CA       106.1000  175.8800  144.3060 C.3   339  TYR339      0.1605
     62  C        107.2730  176.3300  143.4490 C.2   339  TYR339      0.2264
     63  O        108.4300  176.0090  143.7370 O.2   339  TYR339     -0.2867
     64  CB       105.5700  177.0720  145.1140 C.3   339  TYR339      0.0534
     65  CG       104.2440  176.8460  145.8200 C.ar  339  TYR339     -0.0201
     66  CD1      104.1730  176.1380  147.0230 C.ar  339  TYR339     -0.0009
     67  CD2      103.0590  177.3640  145.2920 C.ar  339  TYR339     -0.0009
     68  CE1      102.9610  175.9570  147.6790 C.ar  339  TYR339      0.0417
     69  CE2      101.8450  177.1880  145.9380 C.ar  339  TYR339      0.0417
     70  CZ       101.8040  176.4850  147.1290 C.ar  339  TYR339      0.1957
     71  OH       100.6010  176.3200  147.7690 O.3   339  TYR339     -0.2866
     72  N         96.7120  175.5920  141.1960 N.3   354  ASN354     -0.1225
     73  CA        96.5130  176.9510  141.6780 C.3   354  ASN354      0.1785
     74  C         95.0930  177.2070  142.2210 C.2   354  ASN354      0.2597
     75  O         94.1030  177.0320  141.5060 O.2   354  ASN354     -0.2718
     76  CB        96.8340  177.9200  140.5380 C.3   354  ASN354      0.1169
     77  CG        96.6380  179.3650  140.9270 C.2   354  ASN354      0.2627
     78  OD1       95.5140  179.8110  141.1560 O.2   354  ASN354     -0.2716
     79  ND2       97.7350  180.1090  141.0060 N.am  354  ASN354     -0.0877
     80  N         95.0040  177.6200  143.4870 N.am  355  ILE355     -0.1966
     81  CA        93.7190  177.9170  144.1330 C.3   355  ILE355      0.1727
     82  C         93.5140  179.4290  144.2000 C.2   355  ILE355      0.2617
     83  O         93.8990  180.0730  145.1740 O.2   355  ILE355     -0.2715
     84  CB        93.6610  177.3680  145.5780 C.3   355  ILE355      0.0290
     85  CG1       93.8770  175.8560  145.5820 C.3   355  ILE355      0.0022
     86  CG2       92.3230  177.6960  146.2030 C.3   355  ILE355      0.0023
     87  CD1       93.8010  175.2230  146.9630 C.3   355  ILE355      0.0001
     88  N         92.9100  179.9910  143.1610 N.am  356  SER356     -0.1936
     89  CA        92.6680  181.4270  143.1080 C.3   356  SER356      0.2055
     90  C         91.9400  181.9230  144.3550 C.2   356  SER356      0.2643
     91  O         91.3090  181.1370  145.0670 O.2   356  SER356     -0.2714
     92  CB        91.8510  181.7720  141.8570 C.3   356  SER356      0.2130
     93  OG        90.6320  181.0460  141.8250 O.3   356  SER356     -0.2179
     94  N         92.0420  183.2280  144.6150 N.am  357  GLY357     -0.1954
     95  CA        91.3770  183.8250  145.7630 C.3   357  GLY357      0.1869
     96  C         89.8940  183.5070  145.7390 C.2   357  GLY357      0.2309
     97  O         89.3020  183.1870  146.7710 O.2   357  GLY357     -0.2863
     98  N         89.1540  180.3370  146.9590 N.3   360  LEU360     -0.1245
     99  CA        89.5350  180.3620  148.3710 C.3   360  LEU360      0.1561
    100  C         88.3680  180.7420  149.2730 C.2   360  LEU360      0.2260
    101  O         88.1000  180.0580  150.2590 O.2   360  LEU360     -0.2867
    102  CB        90.6940  181.3350  148.6070 C.3   360  LEU360      0.0270
    103  CG        91.1790  181.3920  150.0580 C.3   360  LEU360      0.0019
    104  CD1       91.6560  180.0170  150.4940 C.3   360  LEU360      0.0001
    105  CD2       92.2940  182.4140  150.1870 C.3   360  LEU360      0.0001
    106  N         98.3950  174.3000  149.9440 N.3   374  PHE374     -0.1241
    107  CA        98.0390  175.6860  149.6660 C.3   374  PHE374      0.1605
    108  C         98.4540  176.6840  150.7410 C.2   374  PHE374      0.2264
    109  O         99.1620  177.6470  150.4580 O.2   374  PHE374     -0.2867
    110  CB        96.5390  175.8230  149.4450 C.3   374  PHE374      0.0534
    111  CG        96.0920  177.2430  149.2590 C.ar  374  PHE374     -0.0203
    112  CD1       96.3520  177.9160  148.0730 C.ar  374  PHE374     -0.0042
    113  CD2       95.4210  177.9100  150.2730 C.ar  374  PHE374     -0.0042
    114  CE1       95.9440  179.2360  147.8930 C.ar  374  PHE374     -0.0003
    115  CE2       95.0090  179.2280  150.1070 C.ar  374  PHE374     -0.0003
    116  CZ        95.2700  179.8930  148.9130 C.ar  374  PHE374     -0.0000
@<TRIPOS>BOND
     1    44    42    1
     2    39    40    1
     3    39    38    1
     4    40    41    1
     5    52    51    1
     6    42    41    2
     7    42    43    1
     8    49    50    1
     9    49    46    1
    10    45    46    1
    11    50    51    1
    12    46    47    1
    13    48    47    2
    14    38    35    1
    15    35    36    1
    16    35    34    1
    17    47    53   am
    18    36    37    2
    19    53    54    1
    20    76    77    1
    21    76    73    1
    22    77    79   am
    23    77    78    2
    24    72    73    1
    25    54    55    1
    26    54    57    1
    27    75    74    2
    28    55    56    2
    29    73    74    1
    30    93    92    1
    31    92    89    1
    32    74    80   am
    33    59    57    1
    34    57    58    1
    35    89    88    1
    36    89    90    1
    37    88    82   am
    38    62    63    2
    39    62    61    1
    40    80    81    1
    41    81    82    1
    42    81    84    1
    43    82    83    2
    44    61    64    1
    45    61    60    1
    46    90    94   am
    47    90    91    2
    48    94    95    1
    49    64    65    1
    50    67    65   ar
    51    67    69   ar
    52    84    85    1
    53    84    86    1
    54    85    87    1
    55    96    95    1
    56    96    97    2
    57    65    66   ar
    58    69    70   ar
    59    23    20    1
    60    98    99    1
    61    66    68   ar
    62    70    68   ar
    63    70    71    1
    64    22    21    2
    65    20    21    1
    66    20    19    1
    67    32    30   ar
    68    32    33   ar
    69    21    24   am
    70     7     6    2
    71   114   112   ar
    72   114   116   ar
    73    30    29   ar
    74   112   111   ar
    75    33    31   ar
    76    99   102    1
    77    99   100    1
    78   102   103    1
    79    24    25    1
    80   116   115   ar
    81    25    28    1
    82    25    26    1
    83    29    31   ar
    84    29    28    1
    85     6     8   am
    86     6     5    1
    87   111   110    1
    88   111   113   ar
    89   100   101    2
    90   110   107    1
    91    27    26    2
    92   107   106    1
    93   107   108    1
    94     5     2    1
    95   103   105    1
    96   103   104    1
    97   115   113   ar
    98   109   108    2
    99    16    14   ar
   100    16    18   ar
   101    13    14    1
   102    13    10    1
   103     1     2    1
   104    14    15   ar
   105     2     3    1
   106    18    17   ar
   107    12    11    2
   108    11    10    1
   109    10     9    1
   110     3     4    2
   111    15    17   ar
