@<TRIPOS>MOLECULE
tmp/1g8iA01.pdb
 103 98 0 0 0
SMALL
GASTEIGER

@<TRIPOS>ATOM
      1  N          6.2200    6.5260    7.0950 N.3    61  PHE61      -0.1241
      2  CA         7.4140    5.7570    6.6700 C.3    61  PHE61       0.1605
      3  C          7.1620    4.2590    6.8200 C.2    61  PHE61       0.2264
      4  O          7.5700    3.4850    5.9820 O.2    61  PHE61      -0.2867
      5  CB         8.6650    6.1160    7.4910 C.3    61  PHE61       0.0534
      6  CG         9.9420    5.4150    7.0080 C.ar   61  PHE61      -0.0203
      7  CD1       10.5300    5.7660    5.7910 C.ar   61  PHE61      -0.0042
      8  CD2       10.5240    4.3820    7.7570 C.ar   61  PHE61      -0.0042
      9  CE1       11.6650    5.1000    5.3190 C.ar   61  PHE61      -0.0003
     10  CE2       11.6650    3.7040    7.2880 C.ar   61  PHE61      -0.0003
     11  CZ        12.2360    4.0690    6.0610 C.ar   61  PHE61      -0.0000
     12  N         17.6850   -6.6240    3.2000 N.3    89  THR89      -0.1218
     13  CA        18.0020   -5.4360    3.9740 C.3    89  THR89       0.1862
     14  C         19.0470   -5.5850    5.0780 C.2    89  THR89       0.2287
     15  O         19.7240   -4.6090    5.4220 O.2    89  THR89      -0.2866
     16  CB        16.7150   -4.7480    4.6260 C.3    89  THR89       0.1770
     17  OG1       16.1040   -5.6080    5.6200 O.3    89  THR89      -0.2211
     18  CG2       15.7320   -4.3720    3.5310 C.3    89  THR89       0.0375
     19  N         21.2230   -4.2010   -1.7720 N.3    97  LYS97      -0.1245
     20  CA        20.5230   -3.2520   -0.9210 C.3    97  LYS97       0.1561
     21  C         20.1700   -1.9970   -1.7170 C.2    97  LYS97       0.2260
     22  O         19.1390   -1.3720   -1.4710 O.2    97  LYS97      -0.2867
     23  CB        21.3190   -2.8920    0.3220 C.3    97  LYS97       0.0271
     24  CG        21.6840   -4.0990    1.2020 C.3    97  LYS97       0.0035
     25  CD        21.8740   -3.5820    2.6290 C.3    97  LYS97       0.0206
     26  CE        22.4410   -4.6850    3.5970 C.3    97  LYS97       0.1093
     27  NZ        23.8960   -4.4950    3.6040 N.3    97  LYS97      -0.1314
     28  N         16.9790   -2.6100   -3.6540 N.3   100  TRP100     -0.1227
     29  CA        15.8380   -2.6140   -2.7180 C.3   100  TRP100      0.1737
     30  C         15.4360   -1.1670   -2.3440 C.2   100  TRP100      0.2595
     31  O         14.2420   -0.8050   -2.2820 O.2   100  TRP100     -0.2718
     32  CB        16.2350   -3.3930   -1.4300 C.3   100  TRP100      0.0564
     33  CG        15.0350   -3.7690   -0.5820 C.ar  100  TRP100      0.0003
     34  CD1       14.2620   -4.8990   -0.6960 C.ar  100  TRP100      0.0946
     35  CD2       14.4380   -2.9790    0.4520 C.ar  100  TRP100      0.0152
     36  NE1       13.2180   -4.8510    0.2060 N.ar  100  TRP100     -0.2442
     37  CE2       13.3070   -3.6830    0.9180 C.ar  100  TRP100      0.0810
     38  CE3       14.7600   -1.7530    1.0350 C.ar  100  TRP100      0.0012
     39  CZ2       12.4890   -3.1920    1.9440 C.ar  100  TRP100      0.0191
     40  CZ3       13.9520   -1.2630    2.0540 C.ar  100  TRP100      0.0001
     41  CH2       12.8210   -1.9880    2.4980 C.ar  100  TRP100      0.0015
     42  N         16.4400   -0.3310   -2.0710 N.am  101  ALA101     -0.1980
     43  CA        16.2230    1.0670   -1.7040 C.3   101  ALA101      0.1597
     44  C         15.5820    1.7860   -2.8760 C.2   101  ALA101      0.2287
     45  O         14.7370    2.6500   -2.6950 O.2   101  ALA101     -0.2864
     46  CB        17.5830    1.7530   -1.3570 C.3   101  ALA101      0.0319
     47  N         11.9860    1.1510   -2.8690 N.3   104  LEU104     -0.1231
     48  CA        11.3660    1.9390   -1.8000 C.3   104  LEU104      0.1693
     49  C         11.0550    3.3740   -2.2680 C.2   104  LEU104      0.2592
     50  O          9.9540    3.8880   -2.0460 O.2   104  LEU104     -0.2718
     51  CB        12.2990    1.9930   -0.5600 C.3   104  LEU104      0.0284
     52  CG        11.7960    2.8920    0.5990 C.3   104  LEU104      0.0019
     53  CD1       10.4700    2.2890    1.1900 C.3   104  LEU104      0.0001
     54  CD2       12.8090    2.9790    1.7310 C.3   104  LEU104      0.0001
     55  N         12.0330    4.0290   -2.8960 N.am  105  TYR105     -0.1976
     56  CA        11.8540    5.4020   -3.3470 C.3   105  TYR105      0.1639
     57  C         11.0050    5.5820   -4.6010 C.2   105  TYR105      0.2290
     58  O         10.4060    6.6450   -4.7590 O.2   105  TYR105     -0.2864
     59  CB        13.2100    6.0840   -3.5790 C.3   105  TYR105      0.0560
     60  CG        13.9200    6.4480   -2.2900 C.ar  105  TYR105     -0.0198
     61  CD1       14.8980    5.6270   -1.7450 C.ar  105  TYR105     -0.0009
     62  CD2       13.5830    7.6270   -1.6000 C.ar  105  TYR105     -0.0009
     63  CE1       15.5340    5.9690   -0.5340 C.ar  105  TYR105      0.0417
     64  CE2       14.2060    7.9860   -0.3830 C.ar  105  TYR105      0.0417
     65  CZ        15.1740    7.1570    0.1450 C.ar  105  TYR105      0.1957
     66  OH        15.7460    7.4910    1.3870 O.3   105  TYR105     -0.2866
     67  N         10.6150   10.1840    6.7440 N.3   125  ILE125     -0.1245
     68  CA        11.7520    9.8990    7.6140 C.3   125  ILE125      0.1561
     69  C         11.9240   11.0060    8.6620 C.2   125  ILE125      0.2260
     70  O         12.1920   10.7070    9.8300 O.2   125  ILE125     -0.2867
     71  CB        13.0810    9.7430    6.8150 C.3   125  ILE125      0.0252
     72  CG1       13.0160    8.4680    5.9640 C.3   125  ILE125      0.0019
     73  CG2       14.2760    9.7190    7.7520 C.3   125  ILE125      0.0019
     74  CD1       14.2020    8.2830    4.9970 C.3   125  ILE125      0.0001
     75  N          9.1340   10.7030   11.1450 N.3   128  MET128     -0.1245
     76  CA         9.3740    9.5410   11.9920 C.3   128  MET128      0.1570
     77  C         10.3770    9.8050   13.1160 C.2   128  MET128      0.2261
     78  O         10.1390    9.4520   14.2760 O.2   128  MET128     -0.2867
     79  CB         9.8770    8.3750   11.1340 C.3   128  MET128      0.0387
     80  CG        10.6390    7.3160   11.9080 C.3   128  MET128      0.0595
     81  SD        10.6990    5.7340   11.0290 S.3   128  MET128     -0.1393
     82  CE        12.2710    5.8340   10.2360 C.3   128  MET128      0.0692
     83  N         26.2750    3.0730    5.0860 N.3   174  ALA174     -0.1231
     84  CA        24.9790    2.6570    5.5860 C.3   174  ALA174      0.1694
     85  C         24.4170    1.4260    4.9160 C.2   174  ALA174      0.2591
     86  O         23.6220    0.7110    5.5230 O.2   174  ALA174     -0.2718
     87  CB        23.9820    3.7990    5.4790 C.3   174  ALA174      0.0304
     88  N         24.7920    1.1750    3.6700 N.am  175  LEU175     -0.1980
     89  CA        24.2520    0.0180    2.9640 C.3   175  LEU175      0.1596
     90  C         25.2200   -1.1580    2.9400 C.2   175  LEU175      0.2287
     91  O         24.9500   -2.1810    2.3040 O.2   175  LEU175     -0.2864
     92  CB        23.9080    0.3730    1.5220 C.3   175  LEU175      0.0297
     93  CG        22.8000    1.3950    1.3880 C.3   175  LEU175      0.0022
     94  CD1       22.4450    1.5220   -0.0580 C.3   175  LEU175      0.0001
     95  CD2       21.5830    0.9850    2.1940 C.3   175  LEU175      0.0001
     96  N         26.2690   -2.9040    5.6870 N.3   177  LEU177     -0.1245
     97  CA        26.2490   -3.6900    6.9310 C.3   177  LEU177      0.1561
     98  C         25.6970   -5.0870    6.7240 C.2   177  LEU177      0.2260
     99  O         24.9290   -5.3340    5.7930 O.2   177  LEU177     -0.2867
    100  CB        25.4010   -2.9850    7.9940 C.3   177  LEU177      0.0270
    101  CG        25.6790   -1.4730    8.0930 C.3   177  LEU177      0.0019
    102  CD1       24.6590   -0.8330    9.0220 C.3   177  LEU177      0.0001
    103  CD2       27.1020   -1.2490    8.5830 C.3   177  LEU177      0.0001
@<TRIPOS>BOND
     1    58    57    2
     2    57    56    1
     3    28    29    1
     4    59    56    1
     5    59    60    1
     6    56    55    1
     7    55    49   am
     8    44    45    2
     9    44    43    1
    10    47    48    1
    11    29    30    1
    12    29    32    1
    13    30    31    2
    14    30    42   am
    15    60    61   ar
    16    60    62   ar
    17    49    50    2
    18    49    48    1
    19    42    43    1
    20    48    51    1
    21    19    20    1
    22    61    63   ar
    23    21    22    2
    24    21    20    1
    25    43    46    1
    26    62    64   ar
    27    32    33    1
    28    20    23    1
    29    34    33   ar
    30    34    36   ar
    31    33    35   ar
    32    51    52    1
    33    63    65   ar
    34    64    65   ar
    35    94    93    1
    36    65    66    1
    37    36    37   ar
    38    23    24    1
    39    35    37   ar
    40    35    38   ar
    41    52    53    1
    42    52    54    1
    43    37    39   ar
    44    38    40   ar
    45    24    25    1
    46    93    92    1
    47    93    95    1
    48    92    89    1
    49    39    41   ar
    50    40    41   ar
    51    91    90    2
    52    25    26    1
    53    90    89    1
    54    89    88    1
    55    12    13    1
    56    18    16    1
    57    26    27    1
    58    88    85   am
    59    13    16    1
    60    13    14    1
    61    16    17    1
    62    85    86    2
    63    85    84    1
    64    74    72    1
    65    14    15    2
    66    83    84    1
    67     9     7   ar
    68     9    11   ar
    69    87    84    1
    70    96    97    1
    71     7     6   ar
    72    99    98    2
    73    72    71    1
    74     4     3    2
    75    11    10   ar
    76     2     3    1
    77     2     1    1
    78     2     5    1
    79    98    97    1
    80    67    68    1
    81    71    68    1
    82    71    73    1
    83    97   100    1
    84     6     5    1
    85     6     8   ar
    86    10     8   ar
    87    68    69    1
    88   100   101    1
    89   101   103    1
    90   101   102    1
    91    69    70    2
    92    82    81    1
    93    81    80    1
    94    79    80    1
    95    79    76    1
    96    75    76    1
    97    76    77    1
    98    77    78    2
