@<TRIPOS>MOLECULE
tmp/1g8iA02.pdb
 144 140 0 0 0
SMALL
GASTEIGER

@<TRIPOS>ATOM
      1  N         20.1340  -16.6990    4.9220 N.3    19  PHE19      -0.1241
      2  CA        19.9790  -17.3820    6.1980 C.3    19  PHE19       0.1605
      3  C         20.2180  -18.8900    6.0620 C.2    19  PHE19       0.2264
      4  O         20.0700  -19.4490    4.9660 O.2    19  PHE19      -0.2867
      5  CB        18.5370  -17.1820    6.7270 C.3    19  PHE19       0.0534
      6  CG        18.1890  -15.7380    7.0630 C.ar   19  PHE19      -0.0203
      7  CD1       18.8460  -15.0680    8.1060 C.ar   19  PHE19      -0.0042
      8  CD2       17.1980  -15.0490    6.3430 C.ar   19  PHE19      -0.0042
      9  CE1       18.5180  -13.7020    8.4210 C.ar   19  PHE19      -0.0003
     10  CE2       16.8640  -13.7130    6.6380 C.ar   19  PHE19      -0.0003
     11  CZ        17.5070  -13.0330    7.6630 C.ar   19  PHE19      -0.0000
     12  N         18.2980  -20.6070   11.0490 N.3    23  GLU23      -0.1245
     13  CA        17.9100  -19.2050   11.1260 C.3    23  GLU23       0.1567
     14  C         16.5120  -18.9700   10.5370 C.2    23  GLU23       0.2260
     15  O         15.7290  -18.1890   11.1190 O.2    23  GLU23      -0.2867
     16  CB        18.9270  -18.2880   10.4090 C.3    23  GLU23       0.0388
     17  CG        20.2400  -18.1640   11.2280 C.3    23  GLU23       0.1160
     18  CD        21.3610  -17.3820   10.5040 C.2    23  GLU23       0.3649
     19  OE1       21.4660  -17.4720    9.2490 O.co2  23  GLU23      -0.2457
     20  OE2       22.1290  -16.6740   11.2070 O.co2  23  GLU23      -0.2457
     21  N         14.0520  -20.1740   13.0950 N.3    26  GLN26      -0.1231
     22  CA        14.0160  -19.2970   14.2510 C.3    26  GLN26       0.1698
     23  C         13.2000  -18.0400   13.9290 C.2    26  GLN26       0.2592
     24  O         12.3780  -17.6040   14.7690 O.2    26  GLN26      -0.2718
     25  CB        15.4380  -18.9200   14.7300 C.3    26  GLN26       0.0381
     26  CG        16.1970  -20.0990   15.3380 C.3    26  GLN26       0.0905
     27  CD        17.7080  -19.8250   15.4950 C.2    26  GLN26       0.2608
     28  OE1       18.4310  -20.5600   16.2010 O.2    26  GLN26      -0.2717
     29  NE2       18.1890  -18.7810   14.8150 N.am   26  GLN26      -0.0878
     30  N         13.3630  -17.4770   12.7230 N.am   27  TRP27      -0.1976
     31  CA        12.5920  -16.3040   12.3420 C.3    27  TRP27       0.1640
     32  C         11.0880  -16.6460   12.2160 C.2    27  TRP27       0.2290
     33  O         10.2350  -15.8350   12.5620 O.2    27  TRP27      -0.2864
     34  CB        13.0950  -15.6950   10.9970 C.3    27  TRP27       0.0576
     35  CG        14.1700  -14.6620   11.2360 C.ar   27  TRP27       0.0006
     36  CD1       15.5080  -14.7410   10.8830 C.ar   27  TRP27       0.0946
     37  CD2       14.0220  -13.4470   11.9590 C.ar   27  TRP27       0.0152
     38  NE1       16.1850  -13.6390   11.3540 N.ar   27  TRP27      -0.2442
     39  CE2       15.3030  -12.8300   12.0210 C.ar   27  TRP27       0.0810
     40  CE3       12.9400  -12.8120   12.5690 C.ar   27  TRP27       0.0012
     41  CZ2       15.5120  -11.6060   12.6760 C.ar   27  TRP27       0.0191
     42  CZ3       13.1580  -11.5770   13.2270 C.ar   27  TRP27       0.0001
     43  CH2       14.4230  -11.0020   13.2690 C.ar   27  TRP27       0.0015
     44  N          9.5510  -16.6550   15.7170 N.3    30  GLY30      -0.1225
     45  CA         9.3350  -15.2930   16.1640 C.3    30  GLY30       0.1811
     46  C          8.2020  -14.6130   15.4090 C.2    30  GLY30       0.2280
     47  O          7.3600  -13.9270   15.9990 O.2    30  GLY30      -0.2866
     48  N          2.1960   -3.8170   11.2290 N.3    45  PHE45      -0.1241
     49  CA         3.5170   -3.3750   10.7990 C.3    45  PHE45       0.1605
     50  C          3.8010   -2.0030   11.4050 C.2    45  PHE45       0.2264
     51  O          4.9300   -1.6990   11.7590 O.2    45  PHE45      -0.2867
     52  CB         3.5940   -3.3180    9.2650 C.3    45  PHE45       0.0534
     53  CG         5.0000   -3.2720    8.7380 C.ar   45  PHE45      -0.0203
     54  CD1        5.5370   -2.0870    8.2470 C.ar   45  PHE45      -0.0042
     55  CD2        5.8040   -4.4100    8.7760 C.ar   45  PHE45      -0.0042
     56  CE1        6.8730   -2.0450    7.8010 C.ar   45  PHE45      -0.0003
     57  CE2        7.1380   -4.3750    8.3330 C.ar   45  PHE45      -0.0003
     58  CZ         7.6660   -3.1860    7.8470 C.ar   45  PHE45      -0.0000
     59  N          5.4930   -2.2440   14.9840 N.3    48  ILE48      -0.1231
     60  CA         6.9110   -2.5660   15.0550 C.3    48  ILE48       0.1692
     61  C          7.7030   -1.2600   15.0060 C.2    48  ILE48       0.2592
     62  O          8.7000   -1.0940   15.7100 O.2    48  ILE48      -0.2718
     63  CB         7.3780   -3.4370   13.8630 C.3    48  ILE48       0.0266
     64  CG1        6.7950   -4.8480   13.9600 C.3    48  ILE48       0.0019
     65  CG2        8.8880   -3.5040   13.8490 C.3    48  ILE48       0.0020
     66  CD1        7.3330   -5.8060   12.8830 C.3    48  ILE48       0.0001
     67  N          7.2530   -0.3380   14.1590 N.am   49  TYR49      -0.1976
     68  CA         7.9230    0.9470   14.0150 C.3    49  TYR49       0.1639
     69  C          7.6060    1.8870   15.1760 C.2    49  TYR49       0.2290
     70  O          8.5090    2.4900   15.7520 O.2    49  TYR49      -0.2864
     71  CB         7.5580    1.5990   12.6700 C.3    49  TYR49       0.0560
     72  CG         8.4830    1.1970   11.5380 C.ar   49  TYR49      -0.0198
     73  CD1        8.1980    0.1000   10.7210 C.ar   49  TYR49      -0.0009
     74  CD2        9.6990    1.8650   11.3420 C.ar   49  TYR49      -0.0009
     75  CE1        9.1030   -0.3320    9.7360 C.ar   49  TYR49       0.0417
     76  CE2       10.6100    1.4410   10.3720 C.ar   49  TYR49       0.0417
     77  CZ        10.3100    0.3380    9.5710 C.ar   49  TYR49       0.1957
     78  OH        11.2520   -0.1130    8.6590 O.3    49  TYR49      -0.2866
     79  N         10.1040    1.4550   17.9680 N.3    52  PHE52      -0.1241
     80  CA        11.3980    2.1110   17.7990 C.3    52  PHE52       0.1605
     81  C         11.3690    3.6290   17.7340 C.2    52  PHE52       0.2264
     82  O         12.4070    4.2710   17.8890 O.2    52  PHE52      -0.2867
     83  CB        12.0790    1.6130   16.5260 C.3    52  PHE52       0.0534
     84  CG        12.3340    0.1450   16.5080 C.ar   52  PHE52      -0.0203
     85  CD1       11.2790   -0.7570   16.5630 C.ar   52  PHE52      -0.0042
     86  CD2       13.6320   -0.3420   16.4030 C.ar   52  PHE52      -0.0042
     87  CE1       11.5100   -2.1290   16.5090 C.ar   52  PHE52      -0.0003
     88  CE2       13.8770   -1.7070   16.3480 C.ar   52  PHE52      -0.0003
     89  CZ        12.8120   -2.6060   16.4010 C.ar   52  PHE52      -0.0000
     90  N          7.8330   -4.5400    1.4160 N.3    69  PHE69      -0.1241
     91  CA         7.8420   -5.8810    1.9770 C.3    69  PHE69       0.1605
     92  C          6.7380   -6.7160    1.2770 C.2    69  PHE69       0.2264
     93  O          6.9340   -7.9040    0.9490 O.2    69  PHE69      -0.2867
     94  CB         7.5380   -5.8410    3.4880 C.3    69  PHE69       0.0534
     95  CG         8.7670   -5.7580    4.3760 C.ar   69  PHE69      -0.0203
     96  CD1        9.6370   -4.6770    4.2810 C.ar   69  PHE69      -0.0042
     97  CD2        9.0640   -6.7850    5.2850 C.ar   69  PHE69      -0.0042
     98  CE1       10.7850   -4.6130    5.0740 C.ar   69  PHE69      -0.0003
     99  CE2       10.2160   -6.7400    6.0990 C.ar   69  PHE69      -0.0003
    100  CZ        11.0870   -5.6380    5.9880 C.ar   69  PHE69      -0.0000
    101  N          8.3200  -11.5890    4.2830 N.3    82  PHE82      -0.1241
    102  CA         8.9970  -11.0480    5.4260 C.3    82  PHE82       0.1605
    103  C         10.4820  -11.4710    5.4700 C.2    82  PHE82       0.2264
    104  O         11.3610  -10.6030    5.5960 O.2    82  PHE82      -0.2867
    105  CB         8.2680  -11.4980    6.7110 C.3    82  PHE82       0.0534
    106  CG         8.9830  -11.1400    7.9920 C.ar   82  PHE82      -0.0203
    107  CD1        8.7790   -9.9010    8.6070 C.ar   82  PHE82      -0.0042
    108  CD2        9.8180  -12.0660    8.6170 C.ar   82  PHE82      -0.0042
    109  CE1        9.4010   -9.5930    9.8440 C.ar   82  PHE82      -0.0003
    110  CE2       10.4440  -11.7710    9.8480 C.ar   82  PHE82      -0.0003
    111  CZ        10.2310  -10.5290   10.4620 C.ar   82  PHE82      -0.0000
    112  N         13.8930   -9.2590    4.9310 N.3    86  LEU86      -0.1245
    113  CA        14.8700   -9.1460    6.0190 C.3    86  LEU86       0.1561
    114  C         16.2350   -9.5560    5.4920 C.2    86  LEU86       0.2260
    115  O         17.2470   -8.9920    5.9010 O.2    86  LEU86      -0.2867
    116  CB        14.6000  -10.0860    7.2250 C.3    86  LEU86       0.0270
    117  CG        13.4240   -9.7840    8.1450 C.3    86  LEU86       0.0019
    118  CD1       13.5520  -10.6590    9.4150 C.3    86  LEU86       0.0001
    119  CD2       13.4290   -8.3530    8.5440 C.3    86  LEU86       0.0001
    120  N         19.1680   -6.7850    5.6370 N.3    90  SER90      -0.1202
    121  CA        20.1130   -7.0100    6.7120 C.3    90  SER90       0.2020
    122  C         21.4080   -7.6760    6.2550 C.2    90  SER90       0.2618
    123  O         22.4340   -7.4890    6.9100 O.2    90  SER90      -0.2717
    124  CB        19.4230   -7.8700    7.8140 C.3    90  SER90       0.2103
    125  OG        19.5160   -9.2790    7.5860 O.3    90  SER90      -0.2182
    126  N         21.3690   -8.4270    5.1330 N.am   91  ARG91      -0.1979
    127  CA        22.5560   -9.1790    4.7030 C.3    91  ARG91       0.1597
    128  C         22.9250   -9.0870    3.2210 C.2    91  ARG91       0.2287
    129  O         23.8970   -9.7500    2.7850 O.2    91  ARG91      -0.2864
    130  CB        22.3580  -10.6490    5.0310 C.3    91  ARG91       0.0334
    131  CG        22.2920  -10.9710    6.5290 C.3    91  ARG91       0.0492
    132  CD        22.1780  -12.4990    6.8340 C.3    91  ARG91       0.2205
    133  NE        22.2890  -12.6920    8.2910 N.pl3  91  ARG91      -0.0865
    134  CZ        22.3130  -13.8680    8.8790 C.cat  91  ARG91       0.5346
    135  NH1       22.2280  -14.9670    8.1430 N.pl3  91  ARG91       0.1354
    136  NH2       22.4310  -13.9310   10.2130 N.pl3  91  ARG91       0.1354
    137  N         24.0780   -7.8340    9.4240 N.3   179  ASP179     -0.1239
    138  CA        23.5180   -7.9460   10.7760 C.3   179  ASP179      0.1674
    139  C         23.9310   -6.7320   11.6020 C.2   179  ASP179      0.2266
    140  O         24.3950   -6.8500   12.7450 O.2   179  ASP179     -0.2867
    141  CB        23.9540   -9.2320   11.4670 C.3   179  ASP179      0.1410
    142  CG        23.2580  -10.4700   10.8800 C.2   179  ASP179      0.3668
    143  OD1       22.4870  -10.3350    9.8860 O.co2 179  ASP179     -0.2456
    144  OD2       23.5170  -11.5710   11.4010 O.co2 179  ASP179     -0.2456
@<TRIPOS>BOND
     1    93    92    2
     2    92    91    1
     3    90    91    1
     4    91    94    1
     5   129   128    2
     6   128   127    1
     7    94    95    1
     8    96    95   ar
     9    96    98   ar
    10   101   102    1
    11    95    97   ar
    12   127   130    1
    13   127   126    1
    14     1     2    1
    15   112   113    1
    16     4     3    2
    17   130   131    1
    18    98   100   ar
    19   126   122   am
    20    97    99   ar
    21   102   103    1
    22   102   105    1
    23   103   104    2
    24   114   115    2
    25   114   113    1
    26   120   121    1
    27   100    99   ar
    28   113   116    1
    29     3     2    1
    30     2     5    1
    31   122   121    1
    32   122   123    2
    33     8    10   ar
    34     8     6   ar
    35   131   132    1
    36    10    11   ar
    37   105   106    1
    38   121   124    1
    39     5     6    1
    40   132   133    1
    41     6     7   ar
    42   116   117    1
    43   125   124    1
    44    11     9   ar
    45    56    58   ar
    46    56    54   ar
    47    58    57   ar
    48   106   107   ar
    49   106   108   ar
    50     7     9   ar
    51   135   134    1
    52   117   119    1
    53   117   118    1
    54    54    53   ar
    55   133   134    2
    56    57    55   ar
    57   107   109   ar
    58   108   110   ar
    59    78    77    1
    60    53    55   ar
    61    53    52    1
    62   134   136    1
    63    19    18   ar
    64    52    49    1
    65   137   138    1
    66    77    75   ar
    67    77    76   ar
    68    75    73   ar
    69   109   111   ar
    70   110   111   ar
    71   143   142   ar
    72    76    74   ar
    73    16    13    1
    74    16    17    1
    75    18    20   ar
    76    18    17    1
    77    14    15    2
    78    14    13    1
    79    73    72   ar
    80   138   141    1
    81   138   139    1
    82    49    48    1
    83    49    50    1
    84   142   144   ar
    85   142   141    1
    86    36    35   ar
    87    36    38   ar
    88    34    35    1
    89    34    31    1
    90    12    13    1
    91    35    37   ar
    92    74    72   ar
    93    38    39   ar
    94    50    51    2
    95    72    71    1
    96   139   140    2
    97    37    39   ar
    98    37    40   ar
    99    39    41   ar
   100    32    31    1
   101    32    33    2
   102    31    30    1
   103    40    42   ar
   104    71    68    1
   105    41    43   ar
   106    30    23   am
   107    66    64    1
   108    21    22    1
   109    42    43   ar
   110    65    63    1
   111    63    64    1
   112    63    60    1
   113    23    22    1
   114    23    24    2
   115    68    67    1
   116    68    69    1
   117    67    61   am
   118    22    25    1
   119    25    26    1
   120    29    27   am
   121    59    60    1
   122    61    60    1
   123    61    62    2
   124    69    70    2
   125    26    27    1
   126    46    47    2
   127    46    45    1
   128    27    28    2
   129    44    45    1
   130    88    89   ar
   131    88    86   ar
   132    89    87   ar
   133    86    84   ar
   134    84    83    1
   135    84    85   ar
   136    87    85   ar
   137    83    80    1
   138    81    80    1
   139    81    82    2
   140    80    79    1
