@<TRIPOS>MOLECULE
tmp/1g8iB00.pdb
 125 115 0 0 0
SMALL
GASTEIGER

@<TRIPOS>ATOM
      1  N         52.7800   16.1460   32.3490 N.3    99  LEU99      -0.1245
      2  CA        53.4720   17.3540   31.9110 C.3    99  LEU99       0.1561
      3  C         54.2290   17.1030   30.6090 C.2    99  LEU99       0.2260
      4  O         54.3110   18.0060   29.7880 O.2    99  LEU99      -0.2867
      5  CB        54.4230   17.8800   32.9980 C.3    99  LEU99       0.0270
      6  CG        53.5960   18.5130   34.1250 C.3    99  LEU99       0.0019
      7  CD1       54.4600   18.8780   35.3160 C.3    99  LEU99       0.0001
      8  CD2       52.9010   19.7510   33.5470 C.3    99  LEU99       0.0001
      9  N         51.5800   17.2490   27.8770 N.3   102  ALA102     -0.1245
     10  CA        51.1490   18.6330   27.6750 C.3   102  ALA102      0.1562
     11  C         52.2460   19.3610   26.9200 C.2   102  ALA102      0.2260
     12  O         51.9520   20.1980   26.0350 O.2   102  ALA102     -0.2867
     13  CB        50.8890   19.3240   28.9990 C.3   102  ALA102      0.0290
     14  N         51.8640   21.6310   23.4460 N.3   106  TYR106     -0.1241
     15  CA        52.3020   23.0160   23.3040 C.3   106  TYR106      0.1605
     16  C         53.4170   23.2330   22.2770 C.2   106  TYR106      0.2264
     17  O         53.4530   24.2960   21.6240 O.2   106  TYR106     -0.2867
     18  CB        52.7590   23.5790   24.6710 C.3   106  TYR106      0.0534
     19  CG        51.5820   23.9790   25.5350 C.ar  106  TYR106     -0.0201
     20  CD1       50.7830   25.0690   25.1720 C.ar  106  TYR106     -0.0009
     21  CD2       51.2140   23.2410   26.6500 C.ar  106  TYR106     -0.0009
     22  CE1       49.6500   25.4070   25.8930 C.ar  106  TYR106      0.0417
     23  CE2       50.0610   23.5670   27.3760 C.ar  106  TYR106      0.0417
     24  CZ        49.2880   24.6590   26.9810 C.ar  106  TYR106      0.1957
     25  OH        48.1380   25.0200   27.6430 O.3   106  TYR106     -0.2866
     26  N         52.6160   28.9380   22.4360 N.3   119  MET119     -0.1245
     27  CA        51.7360   28.8980   23.5880 C.3   119  MET119      0.1570
     28  C         50.5580   29.8250   23.3310 C.2   119  MET119      0.2261
     29  O         49.4170   29.5080   23.6840 O.2   119  MET119     -0.2867
     30  CB        52.4720   29.2940   24.8830 C.3   119  MET119      0.0387
     31  CG        51.5810   29.0670   26.0690 C.3   119  MET119      0.0595
     32  SD        52.4290   29.2390   27.6510 S.3   119  MET119     -0.1393
     33  CE        53.2580   27.6280   27.7240 C.3   119  MET119      0.0692
     34  N         46.6050   28.8740   23.7610 N.3   123  VAL123     -0.1245
     35  CA        45.7390   29.5990   24.6980 C.3   123  VAL123      0.1561
     36  C         44.5900   30.2990   23.9590 C.2   123  VAL123      0.2260
     37  O         43.4300   30.2940   24.3940 O.2   123  VAL123     -0.2867
     38  CB        46.5730   30.6220   25.5370 C.3   123  VAL123      0.0252
     39  CG1       45.6900   31.4130   26.4260 C.3   123  VAL123      0.0019
     40  CG2       47.6140   29.8690   26.3180 C.3   123  VAL123      0.0019
     41  N         42.0190   27.8570   23.3090 N.3   126  ILE126     -0.1231
     42  CA        41.2370   27.5780   24.5240 C.3   126  ILE126      0.1692
     43  C         40.2110   28.6700   24.7420 C.2   126  ILE126      0.2592
     44  O         39.0400   28.3870   24.9960 O.2   126  ILE126     -0.2718
     45  CB        42.1470   27.4680   25.7840 C.3   126  ILE126      0.0266
     46  CG1       43.0140   26.2090   25.6700 C.3   126  ILE126      0.0019
     47  CG2       41.2900   27.4000   27.0560 C.3   126  ILE126      0.0020
     48  CD1       44.0870   26.0920   26.7820 C.3   126  ILE126      0.0001
     49  N         40.6300   29.9270   24.6430 N.am  127  TYR127     -0.1976
     50  CA        39.6870   31.0230   24.8400 C.3   127  TYR127      0.1639
     51  C         38.5650   30.9270   23.8170 C.2   127  TYR127      0.2290
     52  O         37.3980   31.0660   24.1760 O.2   127  TYR127     -0.2864
     53  CB        40.3900   32.3830   24.7370 C.3   127  TYR127      0.0560
     54  CG        41.0930   32.8230   26.0230 C.ar  127  TYR127     -0.0198
     55  CD1       41.9100   31.9450   26.7290 C.ar  127  TYR127     -0.0009
     56  CD2       40.9630   34.1310   26.5110 C.ar  127  TYR127     -0.0009
     57  CE1       42.5850   32.3570   27.9000 C.ar  127  TYR127      0.0417
     58  CE2       41.6400   34.5570   27.6780 C.ar  127  TYR127      0.0417
     59  CZ        42.4430   33.6630   28.3660 C.ar  127  TYR127      0.1957
     60  OH        43.0580   34.0350   29.5560 O.3   127  TYR127     -0.2866
     61  N         47.6660   35.9300   29.5290 N.3   146  ARG146     -0.1245
     62  CA        47.8590   34.6200   30.1320 C.3   146  ARG146      0.1563
     63  C         49.2660   34.1290   29.7720 C.2   146  ARG146      0.2260
     64  O         49.9900   33.6390   30.6290 O.2   146  ARG146     -0.2867
     65  CB        46.8250   33.6170   29.6040 C.3   146  ARG146      0.0307
     66  CG        47.0990   32.1610   29.9860 C.3   146  ARG146      0.0489
     67  CD        47.2060   32.0450   31.4990 C.3   146  ARG146      0.2205
     68  NE        47.1600   30.6600   31.9930 N.pl3 146  ARG146     -0.0865
     69  CZ        47.4530   30.3210   33.2420 C.cat 146  ARG146      0.5346
     70  NH1       47.8040   31.2800   34.1040 N.pl3 146  ARG146      0.1354
     71  NH2       47.4560   29.0270   33.6130 N.pl3 146  ARG146      0.1354
     72  N         52.5890   33.2820   32.2710 N.3   150  ILE150     -0.1245
     73  CA        53.2430   31.9930   32.2390 C.3   150  ILE150      0.1561
     74  C         54.7300   32.1250   31.9580 C.2   150  ILE150      0.2260
     75  O         55.5540   31.5010   32.6550 O.2   150  ILE150     -0.2867
     76  CB        52.6320   31.0500   31.1910 C.3   150  ILE150      0.0252
     77  CG1       51.1630   30.7820   31.4740 C.3   150  ILE150      0.0019
     78  CG2       53.3500   29.7190   31.2290 C.3   150  ILE150      0.0019
     79  CD1       50.8680   30.0490   32.7670 C.3   150  ILE150      0.0001
     80  N         57.8840   31.0450   34.1530 N.3   154  MET154     -0.1245
     81  CA        58.6370   29.8760   33.7590 C.3   154  MET154      0.1570
     82  C         59.8870   30.0250   32.9250 C.2   154  MET154      0.2261
     83  O         60.7300   29.1460   32.9580 O.2   154  MET154     -0.2867
     84  CB        57.7020   28.8920   33.0510 C.3   154  MET154      0.0387
     85  CG        56.4630   28.5350   33.8380 C.3   154  MET154      0.0595
     86  SD        55.6070   27.1200   33.0430 S.3   154  MET154     -0.1393
     87  CE        54.1150   27.1290   33.9170 C.3   154  MET154      0.0692
     88  N         59.4780   24.0620   31.6210 N.3   167  PHE167     -0.1241
     89  CA        58.0320   23.7820   31.6190 C.3   167  PHE167      0.1605
     90  C         57.5810   22.9340   32.8170 C.2   167  PHE167      0.2264
     91  O         56.5430   23.2110   33.4580 O.2   167  PHE167     -0.2867
     92  CB        57.6390   23.0480   30.3270 C.3   167  PHE167      0.0534
     93  CG        56.1670   22.8340   30.1710 C.ar  167  PHE167     -0.0203
     94  CD1       55.3150   23.9040   29.9080 C.ar  167  PHE167     -0.0042
     95  CD2       55.6390   21.5520   30.2330 C.ar  167  PHE167     -0.0042
     96  CE1       53.9470   23.6960   29.7010 C.ar  167  PHE167     -0.0003
     97  CE2       54.2790   21.3130   30.0310 C.ar  167  PHE167     -0.0003
     98  CZ        53.4210   22.3860   29.7640 C.ar  167  PHE167     -0.0000
     99  N         55.7220   24.5620   35.9970 N.3   171  SER171     -0.1217
    100  CA        54.3880   24.0500   36.2150 C.3   171  SER171      0.1889
    101  C         54.2030   23.5890   37.6560 C.2   171  SER171      0.2288
    102  O         53.1430   23.8210   38.2830 O.2   171  SER171     -0.2866
    103  CB        54.1410   22.8720   35.2820 C.3   171  SER171      0.2089
    104  OG        53.7190   23.3300   34.0210 O.3   171  SER171     -0.2183
    105  N         48.2640   24.8860   38.7610 N.3   177  ILE177     -0.1245
    106  CA        48.6520   23.9760   37.7020 C.3   177  ILE177      0.1561
    107  C         48.8850   22.5800   38.2830 C.2   177  ILE177      0.2260
    108  O         48.4390   21.5690   37.7170 O.2   177  ILE177     -0.2867
    109  CB        49.9180   24.4950   37.0010 C.3   177  ILE177      0.0252
    110  CG1       49.5650   25.8240   36.2880 C.3   177  ILE177      0.0019
    111  CG2       50.4700   23.4190   36.0720 C.3   177  ILE177      0.0019
    112  CD1       50.6910   26.5440   35.6460 C.3   177  ILE177      0.0001
    113  N         45.5860   21.0790   38.8230 N.3   180  ALA180     -0.1231
    114  CA        44.9130   20.6510   37.5990 C.3   180  ALA180      0.1694
    115  C         45.4790   19.3600   37.0080 C.2   180  ALA180      0.2591
    116  O         44.7590   18.6230   36.3540 O.2   180  ALA180     -0.2718
    117  CB        44.9620   21.7620   36.5600 C.3   180  ALA180      0.0304
    118  N         46.7540   19.0830   37.2570 N.am  181  LEU181     -0.1980
    119  CA        47.4250   17.8920   36.7360 C.3   181  LEU181      0.1596
    120  C         47.5490   16.6780   37.6640 C.2   181  LEU181      0.2287
    121  O         48.0560   15.6340   37.2450 O.2   181  LEU181     -0.2864
    122  CB        48.8380   18.2510   36.3090 C.3   181  LEU181      0.0297
    123  CG        49.0070   19.1830   35.1300 C.3   181  LEU181      0.0022
    124  CD1       50.3510   19.8580   35.2350 C.3   181  LEU181      0.0001
    125  CD2       48.8520   18.4050   33.8440 C.3   181  LEU181      0.0001
@<TRIPOS>BOND
     1    17    16    2
     2    16    15    1
     3    26    27    1
     4    15    14    1
     5    15    18    1
     6    41    42    1
     7    28    27    1
     8    28    29    2
     9    27    30    1
    10    34    35    1
    11    51    52    2
    12    51    50    1
    13    36    37    2
    14    36    35    1
    15    42    43    1
    16    42    45    1
    17    49    43   am
    18    49    50    1
    19    18    19    1
    20    35    38    1
    21    53    50    1
    22    53    54    1
    23    43    44    2
    24    30    31    1
    25    20    19   ar
    26    20    22   ar
    27    19    21   ar
    28    38    40    1
    29    38    39    1
    30    46    45    1
    31    46    48    1
    32    45    47    1
    33    22    24   ar
    34    54    56   ar
    35    54    55   ar
    36    12    11    2
    37    31    32    1
    38    56    58   ar
    39    21    23   ar
    40    55    57   ar
    41    11    10    1
    42    24    23   ar
    43    24    25    1
    44    32    33    1
    45    10     9    1
    46    10    13    1
    47    58    59   ar
    48    57    59   ar
    49    59    60    1
    50    61    62    1
    51    65    66    1
    52    65    62    1
    53    96    98   ar
    54    96    94   ar
    55    98    97   ar
    56    63    62    1
    57    63    64    2
    58     4     3    2
    59    94    93   ar
    60    66    67    1
    61    97    95   ar
    62    93    95   ar
    63    93    92    1
    64    92    89    1
    65     3     2    1
    66    76    78    1
    67    76    77    1
    68    76    73    1
    69    77    79    1
    70    67    68    1
    71    89    88    1
    72    89    90    1
    73     2     1    1
    74     2     5    1
    75    74    73    1
    76    74    75    2
    77    68    69    2
    78    73    72    1
    79    90    91    2
    80    82    83    2
    81    82    81    1
    82     5     6    1
    83    86    85    1
    84    86    87    1
    85    84    81    1
    86    84    85    1
    87    69    71    1
    88    69    70    1
    89     8     6    1
    90    81    80    1
    91   125   123    1
    92   104   103    1
    93     6     7    1
    94   123   124    1
    95   123   122    1
    96   103   100    1
    97   112   110    1
    98    99   100    1
    99   111   109    1
   100   100   101    1
   101   110   109    1
   102   122   119    1
   103   116   115    2
   104   117   114    1
   105   119   118    1
   106   119   120    1
   107   109   106    1
   108   115   118   am
   109   115   114    1
   110   121   120    2
   111   114   113    1
   112   101   102    2
   113   106   107    1
   114   106   105    1
   115   108   107    2
