@<TRIPOS>MOLECULE
tmp/1g8oA00.pdb
 146 144 0 0 0
SMALL
GASTEIGER

@<TRIPOS>ATOM
      1  N         91.3640   14.1600   50.0880 N.3    54  PHE54      -0.1227
      2  CA        90.2100   13.5830   50.7710 C.3    54  PHE54       0.1736
      3  C         89.5710   12.4990   49.9010 C.2    54  PHE54       0.2595
      4  O         89.5040   12.6120   48.6690 O.2    54  PHE54      -0.2718
      5  CB        89.1430   14.6500   51.0120 C.3    54  PHE54       0.0547
      6  CG        89.5120   15.7030   52.0280 C.ar   54  PHE54      -0.0202
      7  CD1       90.5390   16.6200   51.7760 C.ar   54  PHE54      -0.0042
      8  CD2       88.8130   15.7830   53.2520 C.ar   54  PHE54      -0.0042
      9  CE1       90.8680   17.5990   52.7240 C.ar   54  PHE54      -0.0003
     10  CE2       89.1290   16.7490   54.2030 C.ar   54  PHE54      -0.0003
     11  CZ        90.1580   17.6600   53.9440 C.ar   54  PHE54      -0.0000
     12  N         89.0890   11.4470   50.5460 N.am   55  ALA55      -0.1966
     13  CA        88.4090   10.3840   49.8390 C.3    55  ALA55       0.1728
     14  C         87.4250    9.7970   50.8160 C.2    55  ALA55       0.2616
     15  O         87.8160    9.1540   51.8150 O.2    55  ALA55      -0.2715
     16  CB        89.3780    9.3340   49.3670 C.3    55  ALA55       0.0334
     17  N         86.1440   10.0480   50.5490 N.am   56  VAL56      -0.1977
     18  CA        85.0910    9.5530   51.4260 C.3    56  VAL56       0.1596
     19  C         84.0380    8.7640   50.6540 C.2    56  VAL56       0.2287
     20  O         83.6950    9.1000   49.5050 O.2    56  VAL56      -0.2864
     21  CB        84.3990   10.7090   52.1950 C.3    56  VAL56       0.0276
     22  CG1       85.4100   11.5750   52.8460 C.3    56  VAL56       0.0022
     23  CG2       83.5390   11.5390   51.2650 C.3    56  VAL56       0.0022
     24  N         82.3290    6.0140   48.3690 N.3    58  ARG58      -0.1231
     25  CA        82.7380    5.2150   47.2090 C.3    58  ARG58       0.1694
     26  C         84.0520    5.7240   46.5990 C.2    58  ARG58       0.2592
     27  O         84.8220    4.9460   46.0290 O.2    58  ARG58      -0.2718
     28  CB        81.6250    5.1980   46.1370 C.3    58  ARG58       0.0321
     29  CG        81.4530    6.5080   45.3100 C.3    58  ARG58       0.0489
     30  CD        80.1420    7.3160   45.6160 C.3    58  ARG58       0.2205
     31  NE        80.3190    8.4150   46.5800 N.pl3  58  ARG58      -0.0865
     32  CZ        80.1880    8.3110   47.9090 C.cat  58  ARG58       0.5346
     33  NH1       79.8690    7.1440   48.4710 N.pl3  58  ARG58       0.1354
     34  NH2       80.3800    9.3850   48.6880 N.pl3  58  ARG58       0.1354
     35  N         84.3170    7.0220   46.7370 N.am   59  TYR59      -0.1976
     36  CA        85.5450    7.6050   46.1820 C.3    59  TYR59       0.1639
     37  C         86.8310    6.8820   46.5850 C.2    59  TYR59       0.2290
     38  O         87.7810    6.8540   45.8180 O.2    59  TYR59      -0.2864
     39  CB        85.6490    9.0800   46.5490 C.3    59  TYR59       0.0560
     40  CG        84.7800    9.9750   45.7010 C.ar   59  TYR59      -0.0198
     41  CD1       85.3330   11.0160   44.9680 C.ar   59  TYR59      -0.0009
     42  CD2       83.4000    9.7890   45.6470 C.ar   59  TYR59      -0.0009
     43  CE1       84.5320   11.8590   44.2080 C.ar   59  TYR59       0.0417
     44  CE2       82.5900   10.6130   44.8900 C.ar   59  TYR59       0.0417
     45  CZ        83.1520   11.6530   44.1770 C.ar   59  TYR59       0.1957
     46  OH        82.3370   12.5240   43.4900 O.3    59  TYR59      -0.2866
     47  N         77.0640   15.6900   49.1500 N.3   115  TRP115     -0.1241
     48  CA        78.3670   15.7530   48.4830 C.3   115  TRP115      0.1605
     49  C         78.9250   17.1720   48.3850 C.2   115  TRP115      0.2264
     50  O         80.1380   17.3720   48.2350 O.2   115  TRP115     -0.2867
     51  CB        78.3210   15.1300   47.0690 C.3   115  TRP115      0.0550
     52  CG        77.5980   15.9100   45.9460 C.ar  115  TRP115      0.0003
     53  CD1       76.3610   15.6310   45.4310 C.ar  115  TRP115      0.0946
     54  CD2       78.1400   16.9680   45.1170 C.ar  115  TRP115      0.0152
     55  NE1       76.1050   16.4270   44.3340 N.ar  115  TRP115     -0.2442
     56  CE2       77.1750   17.2560   44.1190 C.ar  115  TRP115      0.0810
     57  CE3       79.3470   17.6910   45.1160 C.ar  115  TRP115      0.0012
     58  CZ2       77.3810   18.2350   43.1280 C.ar  115  TRP115      0.0191
     59  CZ3       79.5530   18.6680   44.1220 C.ar  115  TRP115      0.0001
     60  CH2       78.5710   18.9240   43.1460 C.ar  115  TRP115      0.0015
     61  N         80.6670   17.7900   51.7140 N.3   118  ILE118     -0.1231
     62  CA        81.8890   16.9900   51.7720 C.3   118  ILE118      0.1692
     63  C         83.0210   17.8110   51.1560 C.2   118  ILE118      0.2592
     64  O         84.0770   18.0070   51.7610 O.2   118  ILE118     -0.2718
     65  CB        81.7580   15.6730   50.9330 C.3   118  ILE118      0.0266
     66  CG1       80.9290   14.6400   51.7000 C.3   118  ILE118      0.0019
     67  CG2       83.1430   15.1150   50.5890 C.3   118  ILE118      0.0020
     68  CD1       80.7460   13.3330   50.9470 C.3   118  ILE118      0.0001
     69  N         82.7650   18.2790   49.9350 N.am  119  SER119     -0.1952
     70  CA        83.7100   19.0740   49.1520 C.3   119  SER119      0.1924
     71  C         83.9950   20.4400   49.7820 C.2   119  SER119      0.2314
     72  O         85.1270   20.9520   49.6550 O.2   119  SER119     -0.2863
     73  CB        83.1840   19.2470   47.7150 C.3   119  SER119      0.2116
     74  OG        84.0330   20.0850   46.9520 O.3   119  SER119     -0.2180
     75  N         86.0800   20.3790   53.3980 N.3   122  ARG122     -0.1245
     76  CA        87.5090   20.1770   53.2630 C.3   122  ARG122      0.1563
     77  C         88.1970   21.4840   53.6780 C.2   122  ARG122      0.2260
     78  O         89.2510   21.4590   54.3020 O.2   122  ARG122     -0.2867
     79  CB        87.8820   19.8290   51.8210 C.3   122  ARG122      0.0307
     80  CG        87.4280   18.4760   51.3490 C.3   122  ARG122      0.0489
     81  CD        87.9570   18.1900   49.9300 C.3   122  ARG122      0.2205
     82  NE        87.5340   19.2080   48.9530 N.pl3 122  ARG122     -0.0865
     83  CZ        88.0100   19.3390   47.7120 C.cat 122  ARG122      0.5346
     84  NH1       88.9470   18.5140   47.2550 N.pl3 122  ARG122      0.1354
     85  NH2       87.5340   20.3020   46.9240 N.pl3 122  ARG122      0.1354
     86  N         91.9210   17.3400   44.5270 N.3   145  ASP145     -0.1225
     87  CA        90.7180   16.5140   44.3950 C.3   145  ASP145      0.1805
     88  C         91.2760   15.1210   44.1770 C.2   145  ASP145      0.2598
     89  O         92.2680   14.9660   43.4440 O.2   145  ASP145     -0.2718
     90  CB        89.9040   16.9440   43.1620 C.3   145  ASP145      0.1424
     91  CG        88.8260   17.9920   43.4780 C.2   145  ASP145      0.3668
     92  OD1       88.9270   18.7130   44.4920 O.co2 145  ASP145     -0.2456
     93  OD2       87.8580   18.1200   42.6890 O.co2 145  ASP145     -0.2456
     94  N         90.6650   14.1020   44.7900 N.am  146  VAL146     -0.1966
     95  CA        91.1650   12.7360   44.6540 C.3   146  VAL146      0.1727
     96  C         90.9450   12.1000   43.2810 C.2   146  VAL146      0.2616
     97  O         91.7650   11.2950   42.8450 O.2   146  VAL146     -0.2715
     98  CB        90.5730   11.7960   45.7540 C.3   146  VAL146      0.0290
     99  CG1       89.0610   11.6300   45.5350 C.3   146  VAL146      0.0023
    100  CG2       91.3420   10.4120   45.7650 C.3   146  VAL146      0.0023
    101  N         89.8540   12.4660   42.6030 N.am  147  ASP147     -0.1971
    102  CA        89.5070   11.9190   41.2710 C.3   147  ASP147      0.1709
    103  C         90.2890   12.5570   40.1070 C.2   147  ASP147      0.2293
    104  O         89.7300   13.2610   39.2660 O.2   147  ASP147     -0.2864
    105  CB        87.9930   12.0710   41.0020 C.3   147  ASP147      0.1436
    106  CG        87.5630   13.5410   40.9210 C.2   147  ASP147      0.3671
    107  OD1       88.1770   14.3920   41.6270 O.co2 147  ASP147     -0.2456
    108  OD2       86.6110   13.8510   40.1610 O.co2 147  ASP147     -0.2456
    109  N         83.9390   12.0850   38.0880 N.3   279  LYS279     -0.1231
    110  CA        83.9450   13.2910   38.9860 C.3   279  LYS279      0.1693
    111  C         82.6400   13.6130   39.7030 C.2   279  LYS279      0.2592
    112  O         81.8370   12.6610   40.0920 O.2   279  LYS279     -0.2718
    113  CB        84.3190   14.4970   38.0760 C.3   279  LYS279      0.0285
    114  CG        83.3250   14.6790   36.9340 C.3   279  LYS279      0.0035
    115  CD        84.0390   15.2990   35.7300 C.3   279  LYS279      0.0206
    116  CE        83.0540   15.6440   34.5950 C.3   279  LYS279      0.1093
    117  NZ        81.8660   16.3200   35.0840 N.3   279  LYS279     -0.1314
    118  N         82.3970   14.9430   39.9300 N.am  280  GLU280     -0.1966
    119  CA        81.0500   15.3550   40.5400 C.3   280  GLU280      0.1733
    120  C         80.3760   16.3000   39.5210 C.2   280  GLU280      0.2616
    121  O         79.4710   16.0350   38.5920 O.2   280  GLU280     -0.2715
    122  CB        81.2430   16.2760   41.7510 C.3   280  GLU280      0.0429
    123  CG        80.4590   15.6960   42.9730 C.3   280  GLU280      0.1163
    124  CD        79.2440   15.1520   42.4180 C.2   280  GLU280      0.3649
    125  OE1       78.8010   15.8360   41.3760 O.co2 280  GLU280     -0.2457
    126  OE2       78.7440   14.0940   42.9210 O.co2 280  GLU280     -0.2457
    127  N         80.6480   17.5550   39.7870 N.am  281  TYR281     -0.1960
    128  CA        80.1210   18.4660   38.7470 C.3   281  TYR281      0.1771
    129  C         80.9470   19.5360   39.3020 C.2   281  TYR281      0.2619
    130  O         80.8880   19.7590   40.6040 O.2   281  TYR281     -0.2715
    131  CB        78.6100   18.6880   38.8080 C.3   281  TYR281      0.0574
    132  CG        78.0260   17.9040   37.5900 C.ar  281  TYR281     -0.0198
    133  CD1       76.7970   17.1560   37.6950 C.ar  281  TYR281     -0.0009
    134  CD2       78.8760   17.6230   36.4900 C.ar  281  TYR281     -0.0009
    135  CE1       76.4880   16.0920   36.7620 C.ar  281  TYR281      0.0417
    136  CE2       78.5560   16.5600   35.5420 C.ar  281  TYR281      0.0417
    137  CZ        77.3680   15.7930   35.7110 C.ar  281  TYR281      0.1957
    138  OH        77.1220   14.5960   34.8250 O.3   281  TYR281     -0.2866
    139  N         81.8900   19.7790   38.3750 N.am  282  ASN282     -0.1972
    140  CA        82.9680   20.7270   38.3090 C.3   282  ASN282      0.1688
    141  C         82.3690   21.4610   37.0810 C.2   282  ASN282      0.2292
    142  O         81.5200   20.8830   36.3760 O.2   282  ASN282     -0.2864
    143  CB        84.2970   20.0200   37.8900 C.3   282  ASN282      0.1181
    144  CG        84.4830   18.5970   38.5130 C.2   282  ASN282      0.2629
    145  OD1       84.5800   17.5930   37.7780 O.2   282  ASN282     -0.2716
    146  ND2       84.5550   18.5180   39.8530 N.am  282  ASN282     -0.0877
@<TRIPOS>BOND
     1   116   117    1
     2   116   115    1
     3   138   137    1
     4   136   137   ar
     5   136   134   ar
     6   137   135   ar
     7   115   114    1
     8   142   141    2
     9   134   132   ar
    10   135   133   ar
    11   114   113    1
    12   141   140    1
    13   132   133   ar
    14   132   131    1
    15   145   144    2
    16   143   140    1
    17   143   144    1
    18   113   110    1
    19   109   110    1
    20   140   139    1
    21   139   129   am
    22   144   146   am
    23   121   120    2
    24   128   131    1
    25   128   129    1
    26   128   127    1
    27   110   111    1
    28   104   103    2
    29   129   130    2
    30   120   127   am
    31   120   119    1
    32   111   118   am
    33   111   112    2
    34   118   119    1
    35   103   102    1
    36   108   106   ar
    37   119   122    1
    38   106   105    1
    39   106   107   ar
    40   105   102    1
    41   102   101    1
    42   125   124   ar
    43   122   123    1
    44   124   126   ar
    45   124   123    1
    46   101    96   am
    47    93    91   ar
    48    97    96    2
    49    58    60   ar
    50    58    56   ar
    51    60    59   ar
    52    90    91    1
    53    90    87    1
    54    96    95    1
    55    89    88    2
    56    91    92   ar
    57    46    45    1
    58    56    55   ar
    59    56    54   ar
    60    59    57   ar
    61    88    87    1
    62    88    94   am
    63    45    43   ar
    64    45    44   ar
    65    43    41   ar
    66    55    53   ar
    67    87    86    1
    68    95    94    1
    69    95    98    1
    70    44    42   ar
    71    41    40   ar
    72    57    54   ar
    73    54    52   ar
    74    29    30    1
    75    29    28    1
    76    53    52   ar
    77    99    98    1
    78    30    31    1
    79    42    40   ar
    80    40    39    1
    81    98   100    1
    82    38    37    2
    83    52    51    1
    84    27    26    2
    85    28    25    1
    86    36    39    1
    87    36    37    1
    88    36    35    1
    89    31    32    2
    90    26    35   am
    91    26    25    1
    92    85    83    1
    93    74    73    1
    94    51    48    1
    95    25    24    1
    96    84    83    1
    97    83    82    2
    98    73    70    1
    99    32    33    1
   100    32    34    1
   101    50    49    2
   102    49    48    1
   103    48    47    1
   104     4     3    2
   105    82    81    1
   106    70    71    1
   107    70    69    1
   108    16    13    1
   109    20    19    2
   110    72    71    2
   111    13    12    1
   112    13    14    1
   113     3    12   am
   114     3     2    1
   115    81    80    1
   116    69    63   am
   117     1     2    1
   118    17    14   am
   119    17    18    1
   120    67    65    1
   121    19    18    1
   122     2     5    1
   123    14    15    2
   124    65    66    1
   125    65    62    1
   126    68    66    1
   127     5     6    1
   128    63    64    2
   129    63    62    1
   130    23    21    1
   131    80    79    1
   132    18    21    1
   133    61    62    1
   134     7     6   ar
   135     7     9   ar
   136    79    76    1
   137     6     8   ar
   138    21    22    1
   139     9    11   ar
   140     8    10   ar
   141    76    75    1
   142    76    77    1
   143    77    78    2
   144    11    10   ar
