@<TRIPOS>MOLECULE
tmp/1g8sA00.pdb
 93 90 0 0 0
SMALL
GASTEIGER

@<TRIPOS>ATOM
      1  N         40.9570    7.9940   38.6680 N.3    56  LYS56      -0.1231
      2  CA        39.6980    8.7360   38.6610 C.3    56  LYS56       0.1693
      3  C         39.7460   10.0680   37.9230 C.2    56  LYS56       0.2593
      4  O         38.7310   10.7550   37.8060 O.2    56  LYS56      -0.2718
      5  CB        39.2300    8.9780   40.0980 C.3    56  LYS56       0.0285
      6  CG        39.0100    7.7070   40.8930 C.3    56  LYS56       0.0035
      7  CD        38.3810    8.0050   42.2430 C.3    56  LYS56       0.0206
      8  CE        38.1090    6.7220   43.0150 C.3    56  LYS56       0.1093
      9  NZ        37.3620    6.9780   44.2790 N.3    56  LYS56      -0.1314
     10  N         40.9240   10.4430   37.4360 N.am   57  SER57      -0.1938
     11  CA        41.0870   11.7000   36.7200 C.3    57  SER57       0.2055
     12  C         42.0730   11.5230   35.5710 C.2    57  SER57       0.2642
     13  O         43.2580   11.2230   35.7870 O.2    57  SER57      -0.2714
     14  CB        41.5930   12.7880   37.6720 C.3    57  SER57       0.2130
     15  OG        41.9270   13.9700   36.9740 O.3    57  SER57      -0.2179
     16  N         41.5900   11.7040   34.3480 N.am   58  LYS58      -0.1977
     17  CA        42.4430   11.5470   33.1820 C.3    58  LYS58       0.1596
     18  C         43.6030   12.5330   33.1700 C.2    58  LYS58       0.2287
     19  O         44.6450   12.2390   32.5910 O.2    58  LYS58      -0.2864
     20  CB        41.6280   11.7030   31.8950 C.3    58  LYS58       0.0298
     21  CG        40.5410   10.6530   31.7520 C.3    58  LYS58       0.0038
     22  CD        39.7760   10.8100   30.4490 C.3    58  LYS58       0.0206
     23  CE        38.4810   10.0160   30.5030 C.3    58  LYS58       0.1093
     24  NZ        37.5870   10.5350   31.5830 N.3    58  LYS58      -0.1314
     25  N         36.2990   24.2550   30.8390 N.3    80  TYR80      -0.1241
     26  CA        36.2370   22.8160   31.0580 C.3    80  TYR80       0.1605
     27  C         35.0270   22.2130   30.3460 C.2    80  TYR80       0.2264
     28  O         33.8850   22.5540   30.6650 O.2    80  TYR80      -0.2867
     29  CB        36.1430   22.5280   32.5680 C.3    80  TYR80       0.0534
     30  CG        36.3230   21.0830   32.9360 C.ar   80  TYR80      -0.0201
     31  CD1       37.5380   20.6240   33.4650 C.ar   80  TYR80      -0.0009
     32  CD2       35.3030   20.1470   32.7310 C.ar   80  TYR80      -0.0009
     33  CE1       37.7270   19.2840   33.7740 C.ar   80  TYR80       0.0417
     34  CE2       35.4910   18.7960   33.0370 C.ar   80  TYR80       0.0417
     35  CZ        36.7110   18.3740   33.5580 C.ar   80  TYR80       0.1957
     36  OH        36.9190   17.0460   33.8460 O.3    80  TYR80      -0.2866
     37  N         31.5060   15.7130   30.7840 N.3    83  ALA83      -0.1231
     38  CA        30.7610   15.2020   31.9240 C.3    83  ALA83       0.1694
     39  C         31.7110   14.9930   33.0900 C.2    83  ALA83       0.2593
     40  O         32.8130   14.4690   32.9180 O.2    83  ALA83      -0.2718
     41  CB        30.0840   13.8800   31.5610 C.3    83  ALA83       0.0304
     42  N         31.2840   15.4070   34.2740 N.am   84  SER84      -0.1938
     43  CA        32.1140   15.2540   35.4650 C.3    84  SER84       0.2055
     44  C         31.2830   15.3450   36.7270 C.2    84  SER84       0.2642
     45  O         30.3560   16.1510   36.8150 O.2    84  SER84      -0.2714
     46  CB        33.1950   16.3360   35.5040 C.3    84  SER84       0.2130
     47  OG        33.8960   16.3120   36.7430 O.3    84  SER84      -0.2179
     48  N         31.6340   14.5100   37.6990 N.am   85  ALA85      -0.1977
     49  CA        30.9650   14.4930   38.9890 C.3    85  ALA85       0.1597
     50  C         31.7240   15.4570   39.9040 C.2    85  ALA85       0.2287
     51  O         31.3620   15.6400   41.0680 O.2    85  ALA85      -0.2864
     52  CB        30.9780   13.0870   39.5660 C.3    85  ALA85       0.0319
     53  N         35.4400   15.4620   40.1140 N.3    87  THR87      -0.1203
     54  CA        36.8190   15.0260   40.3680 C.3    87  THR87       0.1994
     55  C         37.9020   15.9220   39.7700 C.2    87  THR87       0.2619
     56  O         38.6020   16.6270   40.5010 O.2    87  THR87      -0.2717
     57  CB        37.0490   13.5810   39.8800 C.3    87  THR87       0.1784
     58  OG1       36.1280   12.7020   40.5420 O.3    87  THR87      -0.2211
     59  CG2       38.4740   13.1260   40.1930 C.3    87  THR87       0.0376
     60  N         38.0490   15.9150   38.4480 N.am   88  THR88      -0.1939
     61  CA        39.0820   16.7430   37.8390 C.3    88  THR88       0.2013
     62  C         38.8380   18.2400   38.0220 C.2    88  THR88       0.2484
     63  O         39.7770   19.0010   38.2500 O.2    88  THR88      -0.2729
     64  CB        39.2760   16.3920   36.3450 C.3    88  THR88       0.1807
     65  OG1       39.6570   15.0160   36.2340 O.3    88  THR88      -0.2208
     66  CG2       40.3550   17.2610   35.7190 C.3    88  THR88       0.0379
     67  N         37.5730   18.7010   37.9210 N.am   89  PRO89      -0.2726
     68  CA        37.3700   20.1410   38.1140 C.3    89  PRO89       0.1402
     69  C         37.8130   20.6190   39.5120 C.2    89  PRO89       0.2269
     70  O         38.2850   21.7420   39.6560 O.2    89  PRO89      -0.2865
     71  CB        35.8640   20.3100   37.9000 C.3    89  PRO89       0.0296
     72  CG        35.5760   19.2650   36.8520 C.3    89  PRO89       0.0237
     73  CD        36.3670   18.0660   37.3540 C.3    89  PRO89       0.0939
     74  N         40.1130   22.5760   28.4560 N.3   148  TYR148     -0.1241
     75  CA        40.3430   21.1940   28.8390 C.3   148  TYR148      0.1605
     76  C         39.0880   20.4600   28.3970 C.2   148  TYR148      0.2264
     77  O         37.9970   20.8030   28.8480 O.2   148  TYR148     -0.2867
     78  CB        40.4820   21.0540   30.3580 C.3   148  TYR148      0.0534
     79  CG        40.6780   19.6250   30.8010 C.ar  148  TYR148     -0.0201
     80  CD1       41.9480   19.0400   30.7940 C.ar  148  TYR148     -0.0009
     81  CD2       39.5910   18.8260   31.1560 C.ar  148  TYR148     -0.0009
     82  CE1       42.1270   17.6990   31.1200 C.ar  148  TYR148      0.0417
     83  CE2       39.7540   17.4800   31.4880 C.ar  148  TYR148      0.0417
     84  CZ        41.0290   16.9210   31.4650 C.ar  148  TYR148      0.1957
     85  OH        41.1970   15.5960   31.7640 O.3   148  TYR148     -0.2866
     86  N         37.0800   16.6350   27.8210 N.3   150  ASP150     -0.1239
     87  CA        36.9570   15.2070   28.0930 C.3   150  ASP150      0.1674
     88  C         35.5450   14.8370   27.6420 C.2   150  ASP150      0.2266
     89  O         34.6400   14.6820   28.4620 O.2   150  ASP150     -0.2867
     90  CB        37.1170   14.9380   29.5910 C.3   150  ASP150      0.1410
     91  CG        37.0090   13.4660   29.9440 C.2   150  ASP150      0.3668
     92  OD1       37.0020   12.6130   29.0340 O.co2 150  ASP150     -0.2456
     93  OD2       36.9410   13.1560   31.1500 O.co2 150  ASP150     -0.2456
@<TRIPOS>BOND
     1    88    87    1
     2    88    89    2
     3    86    87    1
     4    87    90    1
     5    76    75    1
     6    76    77    2
     7    74    75    1
     8    75    78    1
     9    92    91   ar
    10    90    91    1
    11    91    93   ar
    12    27    28    2
    13    27    26    1
    14    78    79    1
    15    22    23    1
    16    22    21    1
    17    23    24    1
    18    37    38    1
    19    80    79   ar
    20    80    82   ar
    21    79    81   ar
    22    25    26    1
    23    26    29    1
    24    82    84   ar
    25    81    83   ar
    26    84    83   ar
    27    84    85    1
    28    41    38    1
    29    21    20    1
    30    20    17    1
    31    38    39    1
    32    29    30    1
    33    19    18    2
    34    32    30   ar
    35    32    34   ar
    36    40    39    2
    37    30    31   ar
    38    34    35   ar
    39    39    42   am
    40    18    17    1
    41    17    16    1
    42    31    33   ar
    43    35    33   ar
    44    35    36    1
    45    42    43    1
    46    16    12   am
    47    43    46    1
    48    43    44    1
    49    46    47    1
    50    12    13    2
    51    12    11    1
    52    66    64    1
    53    65    64    1
    54    64    61    1
    55    11    10    1
    56    11    14    1
    57    44    45    2
    58    44    48   am
    59    72    73    1
    60    72    71    1
    61    15    14    1
    62    73    67    1
    63    10     3   am
    64    48    49    1
    65     4     3    2
    66    61    62    1
    67    61    60    1
    68    71    68    1
    69    67    62   am
    70    67    68    1
    71     3     2    1
    72    62    63    2
    73    68    69    1
    74    60    55   am
    75     2     1    1
    76     2     5    1
    77    49    52    1
    78    49    50    1
    79    69    70    2
    80    55    54    1
    81    55    56    2
    82    57    59    1
    83    57    54    1
    84    57    58    1
    85    50    51    2
    86     5     6    1
    87    53    54    1
    88     6     7    1
    89     7     8    1
    90     8     9    1
