@<TRIPOS>MOLECULE
tmp/1g94A00.pdb
 244 236 0 0 0
SMALL
GASTEIGER

@<TRIPOS>ATOM
      1  N         11.9780   37.5740   14.7460 N.3    46  TRP46      -0.1227
      2  CA        12.8810   36.4340   14.5620 C.3    46  TRP46       0.1737
      3  C         13.6000   36.5270   13.2120 C.2    46  TRP46       0.2595
      4  O         14.7540   36.0920   13.0900 O.2    46  TRP46      -0.2718
      5  CB        12.1360   35.0870   14.6270 C.3    46  TRP46       0.0564
      6  CG        11.1050   34.8920   13.5300 C.ar   46  TRP46       0.0003
      7  CD1        9.7730   35.1770   13.6090 C.ar   46  TRP46       0.0946
      8  CD2       11.3220   34.3720   12.2000 C.ar   46  TRP46       0.0152
      9  NE1        9.1460   34.8780   12.4190 N.ar   46  TRP46      -0.2442
     10  CE2       10.0710   34.3800   11.5380 C.ar   46  TRP46       0.0810
     11  CE3       12.4490   33.9090   11.5040 C.ar   46  TRP46       0.0012
     12  CZ2        9.9110   33.9330   10.2110 C.ar   46  TRP46       0.0191
     13  CZ3       12.2890   33.4660   10.1780 C.ar   46  TRP46       0.0001
     14  CH2       11.0260   33.4860    9.5510 C.ar   46  TRP46       0.0015
     15  N         12.9300   37.0980   12.2080 N.am   47  TRP47      -0.1976
     16  CA        13.5220   37.1940   10.8750 C.3    47  TRP47       0.1640
     17  C         14.6230   38.2180   10.6280 C.2    47  TRP47       0.2290
     18  O         15.1290   38.3090    9.5050 O.2    47  TRP47      -0.2864
     19  CB        12.4450   37.2640    9.7740 C.3    47  TRP47       0.0576
     20  CG        11.3040   38.2310   10.0160 C.ar   47  TRP47       0.0006
     21  CD1       10.0090   37.9040   10.3000 C.ar   47  TRP47       0.0946
     22  CD2       11.3470   39.6720    9.9440 C.ar   47  TRP47       0.0152
     23  NE1        9.2440   39.0440   10.3990 N.ar   47  TRP47      -0.2442
     24  CE2       10.0380   40.1410   10.1850 C.ar   47  TRP47       0.0810
     25  CE3       12.3690   40.6070    9.6950 C.ar   47  TRP47       0.0012
     26  CZ2        9.7130   41.5070   10.1830 C.ar   47  TRP47       0.0191
     27  CZ3       12.0480   41.9720    9.6940 C.ar   47  TRP47       0.0001
     28  CH2       10.7290   42.4050    9.9340 C.ar   47  TRP47       0.0015
     29  N         17.8500   36.8740    9.1150 N.3    50  TYR50      -0.1227
     30  CA        17.9670   36.6130    7.6950 C.3    50  TYR50       0.1736
     31  C         18.2790   37.8210    6.8190 C.2    50  TYR50       0.2595
     32  O         18.1720   37.7510    5.5950 O.2    50  TYR50      -0.2718
     33  CB        16.7550   35.8070    7.2120 C.3    50  TYR50       0.0548
     34  CG        16.7060   34.4500    7.8890 C.ar   50  TYR50      -0.0200
     35  CD1       16.0800   34.2930    9.1200 C.ar   50  TYR50      -0.0009
     36  CD2       17.3680   33.3500    7.3360 C.ar   50  TYR50      -0.0009
     37  CE1       16.1210   33.0790    9.7960 C.ar   50  TYR50       0.0417
     38  CE2       17.4170   32.1310    8.0010 C.ar   50  TYR50       0.0417
     39  CZ        16.7940   32.0070    9.2320 C.ar   50  TYR50       0.1957
     40  OH        16.8720   30.8190    9.9180 O.3    50  TYR50      -0.2866
     41  N         18.7520   38.8940    7.4600 N.am   51  GLN51      -0.1979
     42  CA        19.1670   40.1200    6.7760 C.3    51  GLN51       0.1601
     43  C         20.5740   40.4740    7.2930 C.2    51  GLN51       0.2287
     44  O         20.7220   41.2410    8.2580 O.2    51  GLN51      -0.2864
     45  CB        18.1930   41.2620    7.0630 C.3    51  GLN51       0.0394
     46  CG        16.7900   40.9860    6.5600 C.3    51  GLN51       0.0908
     47  CD        15.9340   42.2290    6.5050 C.2    51  GLN51       0.2608
     48  OE1       16.3890   43.2910    6.0660 O.2    51  GLN51      -0.2717
     49  NE2       14.6710   42.1000    6.9200 N.am   51  GLN51      -0.0878
     50  N         21.8030   36.7140   -0.2850 N.3    89  HIS89      -0.1241
     51  CA        21.5510   38.1520   -0.1690 C.3    89  HIS89       0.1621
     52  C         22.0800   38.8270    1.0950 C.2    89  HIS89       0.2264
     53  O         22.6060   38.1720    2.0050 O.2    89  HIS89      -0.2867
     54  CB        20.0200   38.3310   -0.1680 C.3    89  HIS89       0.0745
     55  CG        19.3180   37.4560    0.8470 C.ar   89  HIS89       0.0817
     56  ND1       18.7650   36.2380    0.5200 N.ar   89  HIS89      -0.2268
     57  CD2       19.1700   37.5900    2.1880 C.ar   89  HIS89       0.1154
     58  CE1       18.3160   35.6470    1.6180 C.ar   89  HIS89       0.1986
     59  NE2       18.5490   36.4470    2.6410 N.ar   89  HIS89      -0.2212
     60  N         17.8410   44.4130    3.5230 N.3    92  ALA92      -0.1231
     61  CA        17.0840   45.3460    2.7000 C.3    92  ALA92       0.1694
     62  C         17.1860   46.7620    3.2970 C.2    92  ALA92       0.2592
     63  O         17.4320   46.9260    4.4960 O.2    92  ALA92      -0.2718
     64  CB        15.6250   44.9170    2.6380 C.3    92  ALA92       0.0304
     65  N         17.0320   47.7750    2.4500 N.am   93  GLY93      -0.1957
     66  CA        17.0650   49.1490    2.9080 C.3    93  GLY93       0.1869
     67  C         18.3550   49.6180    3.5440 C.2    93  GLY93       0.2309
     68  O         19.4420   49.3960    3.0180 O.2    93  GLY93      -0.2863
     69  N         12.0450   42.6910   -8.7120 N.3   121  THR121     -0.1218
     70  CA        11.2970   41.9550   -7.7060 C.3   121  THR121      0.1862
     71  C         10.8630   40.5750   -8.1460 C.2   121  THR121      0.2287
     72  O         10.4310   40.3960   -9.2790 O.2   121  THR121     -0.2866
     73  CB        10.0400   42.7450   -7.3360 C.3   121  THR121      0.1770
     74  OG1       10.4240   44.0370   -6.8530 O.3   121  THR121     -0.2211
     75  CG2        9.2320   42.0250   -6.2630 C.3   121  THR121      0.0375
     76  N          5.3190   36.2520   -7.4990 N.3   124  ASN124     -0.1240
     77  CA         4.8890   34.8900   -7.2600 C.3   124  ASN124      0.1653
     78  C          4.8130   34.0320   -8.5240 C.2   124  ASN124      0.2266
     79  O          5.1150   32.8420   -8.4810 O.2   124  ASN124     -0.2867
     80  CB         3.5530   34.8770   -6.5250 C.3   124  ASN124      0.1155
     81  CG         3.0940   33.4850   -6.2060 C.2   124  ASN124      0.2627
     82  OD1        3.6700   32.8120   -5.3540 O.2   124  ASN124     -0.2716
     83  ND2        2.0760   33.0230   -6.9180 N.am  124  ASN124     -0.0877
     84  N          8.1200   31.9750   -9.9830 N.3   127  TYR127     -0.1241
     85  CA         8.5030   30.6330   -9.5680 C.3   127  TYR127      0.1605
     86  C          8.1340   29.5800  -10.6000 C.2   127  TYR127      0.2264
     87  O          8.9060   28.6540  -10.8620 O.2   127  TYR127     -0.2867
     88  CB         7.8640   30.2790   -8.2300 C.3   127  TYR127      0.0534
     89  CG         8.4640   31.0120   -7.0620 C.ar  127  TYR127     -0.0201
     90  CD1        7.7860   32.0570   -6.4500 C.ar  127  TYR127     -0.0009
     91  CD2        9.7270   30.6650   -6.5730 C.ar  127  TYR127     -0.0009
     92  CE1        8.3420   32.7400   -5.3770 C.ar  127  TYR127      0.0417
     93  CE2       10.2980   31.3420   -5.5000 C.ar  127  TYR127      0.0417
     94  CZ         9.6010   32.3810   -4.9120 C.ar  127  TYR127      0.1957
     95  OH        10.1580   33.0790   -3.8750 O.3   127  TYR127     -0.2866
     96  N         14.3290   38.6170   -3.3470 N.3   139  LEU139     -0.1231
     97  CA        13.3710   37.8490   -2.5470 C.3   139  LEU139      0.1693
     98  C         12.9240   38.8310   -1.4550 C.2   139  LEU139      0.2592
     99  O         13.7450   39.2750   -0.6490 O.2   139  LEU139     -0.2718
    100  CB        14.0750   36.6440   -1.9050 C.3   139  LEU139      0.0284
    101  CG        13.3100   35.7940   -0.8880 C.3   139  LEU139      0.0019
    102  CD1       12.1030   35.1600   -1.5410 C.3   139  LEU139      0.0001
    103  CD2       14.2340   34.7280   -0.3090 C.3   139  LEU139      0.0001
    104  N         11.6440   39.2050   -1.4560 N.am  140  VAL140     -0.1966
    105  CA        11.1030   40.1560   -0.4800 C.3   140  VAL140      0.1727
    106  C         11.9850   41.3840   -0.1810 C.2   140  VAL140      0.2617
    107  O         12.1640   41.7720    0.9700 O.2   140  VAL140     -0.2715
    108  CB        10.6260   39.4570    0.8380 C.3   140  VAL140      0.0290
    109  CG1        9.4940   38.4840    0.5320 C.3   140  VAL140      0.0023
    110  CG2       11.7580   38.7280    1.5320 C.3   140  VAL140      0.0023
    111  N         12.5450   41.9680   -1.2420 N.am  141  GLY141     -0.1940
    112  CA        13.3710   43.1650   -1.1360 C.3   141  GLY141      0.2014
    113  C         14.8080   43.0300   -0.6500 C.2   141  GLY141      0.2638
    114  O         15.4950   44.0490   -0.4500 O.2   141  GLY141     -0.2714
    115  N         15.2540   41.7970   -0.4210 N.am  142  LEU142     -0.1977
    116  CA        16.6130   41.5330    0.0500 C.3   142  LEU142      0.1596
    117  C         17.6310   41.7230   -1.0850 C.2   142  LEU142      0.2287
    118  O         17.4450   41.1780   -2.1820 O.2   142  LEU142     -0.2864
    119  CB        16.6840   40.1150    0.6090 C.3   142  LEU142      0.0297
    120  CG        15.7150   39.8780    1.7790 C.3   142  LEU142      0.0022
    121  CD1       15.6100   38.3930    2.0950 C.3   142  LEU142      0.0001
    122  CD2       16.1580   40.6540    3.0010 C.3   142  LEU142      0.0001
    123  N         23.7870   25.1130    6.5430 N.3   172  ARG172     -0.1245
    124  CA        22.4920   25.1320    5.8720 C.3   172  ARG172      0.1563
    125  C         22.6350   26.2800    4.8740 C.2   172  ARG172      0.2260
    126  O         22.9770   27.3900    5.2710 O.2   172  ARG172     -0.2867
    127  CB        21.3380   25.4490    6.8480 C.3   172  ARG172      0.0307
    128  CG        19.9770   25.6840    6.1440 C.3   172  ARG172      0.0489
    129  CD        18.8630   26.0740    7.1180 C.3   172  ARG172      0.2205
    130  NE        17.5510   26.2420    6.4830 N.pl3 172  ARG172     -0.0865
    131  CZ        17.0590   27.4000    6.0360 C.cat 172  ARG172      0.5346
    132  NH1       15.8390   27.4280    5.4890 N.pl3 172  ARG172      0.1354
    133  NH2       17.7720   28.5250    6.1020 N.pl3 172  ARG172      0.1354
    134  N         20.9110   28.7360    3.0540 N.3   174  ASP174     -0.1225
    135  CA        19.6060   29.3990    3.0000 C.3   174  ASP174      0.1805
    136  C         19.2680   29.9130    1.6030 C.2   174  ASP174      0.2597
    137  O         20.1420   30.3830    0.8810 O.2   174  ASP174     -0.2718
    138  CB        19.5870   30.5590    3.9990 C.3   174  ASP174      0.1424
    139  CG        18.2720   31.3260    3.9960 C.2   174  ASP174      0.3668
    140  OD1       18.2270   32.4570    3.4650 O.co2 174  ASP174     -0.2456
    141  OD2       17.2880   30.8000    4.5370 O.co2 174  ASP174     -0.2456
    142  N         17.9970   29.7860    1.2170 N.am  175  ALA175     -0.1979
    143  CA        17.5250   30.2820   -0.0790 C.3   175  ALA175      0.1597
    144  C         18.3160   29.7920   -1.3020 C.2   175  ALA175      0.2287
    145  O         18.5140   30.5440   -2.2610 O.2   175  ALA175     -0.2864
    146  CB        17.4810   31.8290   -0.0460 C.3   175  ALA175      0.0319
    147  N         17.4800   27.9010   -3.7240 N.3   177  LYS177     -0.1231
    148  CA        16.7280   27.9680   -4.9710 C.3   177  LYS177      0.1693
    149  C         17.0090   29.2850   -5.7020 C.2   177  LYS177      0.2592
    150  O         16.9900   29.3490   -6.9340 O.2   177  LYS177     -0.2718
    151  CB        15.2220   27.8360   -4.7130 C.3   177  LYS177      0.0285
    152  CG        14.4000   27.8560   -6.0050 C.3   177  LYS177      0.0035
    153  CD        13.0820   27.0680   -5.8980 C.3   177  LYS177      0.0206
    154  CE        12.0010   27.8580   -5.2290 C.3   177  LYS177      0.1093
    155  NZ        10.7920   27.0140   -4.9480 N.3   177  LYS177     -0.1314
    156  N         17.3210   30.3210   -4.9290 N.am  178  HIS178     -0.1976
    157  CA        17.5770   31.6450   -5.4770 C.3   178  HIS178      0.1656
    158  C         18.9940   31.8940   -5.9930 C.2   178  HIS178      0.2291
    159  O         19.3350   33.0150   -6.3770 O.2   178  HIS178     -0.2864
    160  CB        17.1490   32.6810   -4.4460 C.3   178  HIS178      0.0771
    161  CG        15.7020   32.5670   -4.0780 C.ar  178  HIS178      0.0820
    162  ND1       14.6940   33.0690   -4.8750 N.ar  178  HIS178     -0.2267
    163  CD2       15.0870   31.9060   -3.0670 C.ar  178  HIS178      0.1154
    164  CE1       13.5210   32.7130   -4.3790 C.ar  178  HIS178      0.1986
    165  NE2       13.7330   32.0080   -3.2820 N.ar  178  HIS178     -0.2212
    166  N         18.4250   24.5960    1.2430 N.3   200  GLU200     -0.1245
    167  CA        16.9820   24.8090    1.3700 C.3   200  GLU200      0.1567
    168  C         16.3760   25.1180    0.0050 C.2   200  GLU200      0.2260
    169  O         16.5840   26.2050   -0.5460 O.2   200  GLU200     -0.2867
    170  CB        16.6520   25.9550    2.3320 C.3   200  GLU200      0.0388
    171  CG        15.1380   26.1310    2.5280 C.3   200  GLU200      0.1160
    172  CD        14.6730   27.5770    2.4760 C.2   200  GLU200      0.3649
    173  OE1       15.3820   28.4400    1.9200 O.co2 200  GLU200     -0.2457
    174  OE2       13.5570   27.8600    2.9600 O.co2 200  GLU200     -0.2457
    175  N         12.5600   24.5340   -1.7790 N.3   202  ILE202     -0.1245
    176  CA        11.1620   24.1270   -1.6530 C.3   202  ILE202      0.1561
    177  C         10.6540   23.7330   -3.0370 C.2   202  ILE202      0.2260
    178  O         10.5000   24.5820   -3.9050 O.2   202  ILE202     -0.2867
    179  CB        10.2910   25.2810   -1.0820 C.3   202  ILE202      0.0252
    180  CG1       10.8420   25.7200    0.2820 C.3   202  ILE202      0.0019
    181  CG2        8.8460   24.8170   -0.9340 C.3   202  ILE202      0.0019
    182  CD1       10.1760   26.9330    0.8940 C.3   202  ILE202      0.0001
    183  N          7.5810   21.4130   -4.6800 N.3   204  GLN204     -0.1231
    184  CA         6.4090   20.5470   -4.6120 C.3   204  GLN204      0.1698
    185  C          5.9840   20.1240   -6.0180 C.2   204  GLN204      0.2592
    186  O          4.9640   19.4490   -6.1900 O.2   204  GLN204     -0.2718
    187  CB         5.2540   21.2830   -3.9400 C.3   204  GLN204      0.0381
    188  CG         5.5150   21.6960   -2.5100 C.3   204  GLN204      0.0905
    189  CD         5.3350   20.5620   -1.5280 C.2   204  GLN204      0.2608
    190  OE1        4.8280   19.4900   -1.8750 O.2   204  GLN204     -0.2717
    191  NE2        5.7460   20.7880   -0.2920 N.am  204  GLN204     -0.0878
    192  N          6.7610   20.5390   -7.0160 N.am  205  GLY205     -0.1957
    193  CA         6.4650   20.2130   -8.4020 C.3   205  GLY205      0.1869
    194  C          6.0010   21.4370   -9.1740 C.2   205  GLY205      0.2309
    195  O          5.5120   22.4010   -8.5780 O.2   205  GLY205     -0.2863
    196  N          7.6960   23.8710  -10.5830 N.3   207  GLU207     -0.1245
    197  CA         8.5430   25.0570  -10.4950 C.3   207  GLU207      0.1567
    198  C          9.5020   25.1380  -11.6880 C.2   207  GLU207      0.2260
    199  O          9.8210   24.1210  -12.3110 O.2   207  GLU207     -0.2867
    200  CB         9.3730   24.9850   -9.2100 C.3   207  GLU207      0.0388
    201  CG         8.5680   24.9300   -7.9170 C.3   207  GLU207      0.1160
    202  CD         8.4330   26.2880   -7.2400 C.2   207  GLU207      0.3649
    203  OE1        9.3460   27.1320   -7.3820 O.co2 207  GLU207     -0.2457
    204  OE2        7.4210   26.5050   -6.5440 O.co2 207  GLU207     -0.2457
    205  N         11.1800   26.1070   10.9600 N.3   263  HIS263     -0.1226
    206  CA        10.8860   27.4430   11.4820 C.3   263  HIS263      0.1752
    207  C          9.9750   28.3080   10.6020 C.2   263  HIS263      0.2596
    208  O          9.3100   29.2090   11.1120 O.2   263  HIS263     -0.2718
    209  CB        12.1880   28.1920   11.8340 C.3   263  HIS263      0.0759
    210  CG        12.9150   28.7300   10.6400 C.ar  263  HIS263      0.0818
    211  ND1       13.6340   27.9290    9.7790 N.ar  263  HIS263     -0.2268
    212  CD2       12.9780   29.9860   10.1270 C.ar  263  HIS263      0.1154
    213  CE1       14.1040   28.6600    8.7840 C.ar  263  HIS263      0.1986
    214  NE2       13.7170   29.9120    8.9710 N.ar  263  HIS263     -0.2212
    215  N          9.9490   28.0600    9.2940 N.am  264  ASP264     -0.1974
    216  CA         9.1040   28.8520    8.3960 C.3   264  ASP264      0.1709
    217  C          7.6660   28.3340    8.3400 C.2   264  ASP264      0.2293
    218  O          6.7110   29.0710    8.5840 O.2   264  ASP264     -0.2864
    219  CB         9.6230   28.8070    6.9480 C.3   264  ASP264      0.1436
    220  CG        10.6880   29.8470    6.6450 C.2   264  ASP264      0.3671
    221  OD1       10.7880   30.8850    7.3460 O.co2 264  ASP264     -0.2456
    222  OD2       11.4200   29.6140    5.6620 O.co2 264  ASP264     -0.2456
    223  N          4.9240   30.7850    6.9370 N.3   269  HIS269     -0.1226
    224  CA         5.8380   31.3800    5.9710 C.3   269  HIS269      0.1752
    225  C          6.0660   30.3200    4.9030 C.2   269  HIS269      0.2596
    226  O          6.9950   29.5160    4.9840 O.2   269  HIS269     -0.2718
    227  CB         7.1440   31.8480    6.6340 C.3   269  HIS269      0.0759
    228  CG         6.9950   33.1240    7.4060 C.ar  269  HIS269      0.0818
    229  ND1        7.7260   34.2540    7.1200 N.ar  269  HIS269     -0.2268
    230  CD2        6.1870   33.4530    8.4430 C.ar  269  HIS269      0.1154
    231  CE1        7.3750   35.2290    7.9460 C.ar  269  HIS269      0.1986
    232  NE2        6.4430   34.7670    8.7570 N.ar  269  HIS269     -0.2212
    233  N          5.1300   30.2610    3.9590 N.am  270  GLY270     -0.1957
    234  CA         5.2070   29.2870    2.8890 C.3   270  GLY270      0.1869
    235  C          4.6230   27.9360    3.2640 C.2   270  GLY270      0.2309
    236  O          4.7360   26.9840    2.5000 O.2   270  GLY270     -0.2863
    237  N          5.5360   37.1670   13.5360 N.3   312  ASP312     -0.1239
    238  CA         6.7560   37.9670   13.3560 C.3   312  ASP312      0.1674
    239  C          7.6070   38.0170   14.6310 C.2   312  ASP312      0.2266
    240  O          8.7910   38.3370   14.5790 O.2   312  ASP312     -0.2867
    241  CB         6.4180   39.4110   12.9780 C.3   312  ASP312      0.1410
    242  CG         5.8450   39.5360   11.5830 C.2   312  ASP312      0.3668
    243  OD1        4.8300   40.2390   11.4190 O.co2 312  ASP312     -0.2456
    244  OD2        6.4030   38.9460   10.6420 O.co2 312  ASP312     -0.2456
@<TRIPOS>BOND
     1   199   198    2
     2   198   197    1
     3    87    86    2
     4    86    85    1
     5   196   197    1
     6   197   200    1
     7    84    85    1
     8    85    88    1
     9    72    71    2
    10   200   201    1
    11   194   195    2
    12   194   193    1
    13    69    70    1
    14    78    79    2
    15    78    77    1
    16   193   192    1
    17    88    89    1
    18    71    70    1
    19   201   202    1
    20    70    73    1
    21    76    77    1
    22   203   202   ar
    23    73    74    1
    24    73    75    1
    25    77    80    1
    26   202   204   ar
    27    89    91   ar
    28    89    90   ar
    29   192   185   am
    30   150   149    2
    31    83    81   am
    32    91    93   ar
    33    80    81    1
    34    90    92   ar
    35   159   158    2
    36    81    82    2
    37   186   185    2
    38   185   184    1
    39   152   153    1
    40   152   151    1
    41   158   157    1
    42   153   154    1
    43   149   148    1
    44   149   156   am
    45    93    94   ar
    46   157   156    1
    47   157   160    1
    48    92    94   ar
    49   154   155    1
    50   148   151    1
    51   148   147    1
    52    94    95    1
    53   162   164   ar
    54   162   161   ar
    55   183   184    1
    56   184   187    1
    57   160   161    1
    58   164   165   ar
    59   161   163   ar
    60   187   188    1
    61   178   177    2
    62    96    97    1
    63   165   163   ar
    64   177   176    1
    65    97   100    1
    66    97    98    1
    67   188   189    1
    68   145   144    2
    69   118   117    2
    70   100   101    1
    71   190   189    2
    72   175   176    1
    73   176   179    1
    74   102   101    1
    75   189   191   am
    76   104    98   am
    77   104   105    1
    78    98    99    2
    79   144   143    1
    80   111   112    1
    81   111   106   am
    82   112   113    1
    83   117   116    1
    84   179   181    1
    85   179   180    1
    86   101   103    1
    87   113   114    2
    88   113   115   am
    89   169   168    2
    90   105   106    1
    91   105   108    1
    92   115   116    1
    93    50    51    1
    94   106   107    2
    95    51    54    1
    96    51    52    1
    97    54    55    1
    98   143   146    1
    99   143   142    1
   100   168   167    1
   101   116   119    1
   102   180   182    1
   103    56    55   ar
   104    56    58   ar
   105   109   108    1
   106   119   120    1
   107   108   110    1
   108    55    57   ar
   109   137   136    2
   110    52    53    2
   111   142   136   am
   112   166   167    1
   113   167   170    1
   114   136   135    1
   115    58    59   ar
   116   120   121    1
   117   120   122    1
   118   173   172   ar
   119    57    59   ar
   120   170   171    1
   121    65    66    1
   122    65    62   am
   123   172   171    1
   124   172   174   ar
   125   236   235    2
   126    64    61    1
   127    61    62    1
   128    61    60    1
   129   234   235    1
   130   234   233    1
   131    66    67    1
   132   135   134    1
   133   135   138    1
   134    68    67    2
   135    62    63    2
   136   140   139   ar
   137   233   225   am
   138   139   138    1
   139   139   141   ar
   140   125   126    2
   141   125   124    1
   142   225   226    2
   143   225   224    1
   144   132   131    1
   145    32    31    2
   146   222   220   ar
   147   124   123    1
   148   124   127    1
   149   224   227    1
   150   224   223    1
   151   131   133    1
   152   131   130    2
   153    48    47    2
   154   128   127    1
   155   128   129    1
   156   130   129    1
   157    47    46    1
   158    47    49   am
   159    46    45    1
   160   227   228    1
   161   220   219    1
   162   220   221   ar
   163    42    45    1
   164    42    43    1
   165    42    41    1
   166    31    41   am
   167    31    30    1
   168   219   216    1
   169   229   228   ar
   170   229   231   ar
   171    33    30    1
   172    33    34    1
   173    43    44    2
   174    36    34   ar
   175    36    38   ar
   176   228   230   ar
   177    30    29    1
   178    34    35   ar
   179   231   232   ar
   180    38    39   ar
   181   217   216    1
   182   217   218    2
   183   216   215    1
   184   230   232   ar
   185   213   214   ar
   186   213   211   ar
   187   214   212   ar
   188    35    37   ar
   189    39    37   ar
   190    39    40    1
   191   215   207   am
   192    18    17    2
   193    14    13   ar
   194    14    12   ar
   195    27    25   ar
   196    27    28   ar
   197    25    22   ar
   198    19    20    1
   199    19    16    1
   200   211   210   ar
   201    28    26   ar
   202    22    20   ar
   203    22    24   ar
   204    20    21   ar
   205   212   210   ar
   206    13    11   ar
   207    26    24   ar
   208    24    23   ar
   209    12    10   ar
   210    21    23   ar
   211   207   208    2
   212   207   206    1
   213    17    16    1
   214   210   209    1
   215   244   242   ar
   216    16    15    1
   217   205   206    1
   218   243   242   ar
   219   206   209    1
   220    11     8   ar
   221    10     8   ar
   222    10     9   ar
   223   242   241    1
   224     8     6   ar
   225    15     3   am
   226     9     7   ar
   227   241   238    1
   228     4     3    2
   229     3     2    1
   230   238   237    1
   231   238   239    1
   232     6     7   ar
   233     6     5    1
   234     2     5    1
   235     2     1    1
   236   240   239    2
