@<TRIPOS>MOLECULE
tmp/1g98A00.pdb
 130 120 0 0 0
SMALL
GASTEIGER

@<TRIPOS>ATOM
      1  N         19.1130    3.4790   32.2020 N.3   156  ILE156     -0.1231
      2  CA        17.7830    3.6600   32.7680 C.3   156  ILE156      0.1692
      3  C         16.9100    4.5040   31.8430 C.2   156  ILE156      0.2593
      4  O         17.4210    5.2590   31.0160 O.2   156  ILE156     -0.2718
      5  CB        17.8830    4.3060   34.1840 C.3   156  ILE156      0.0266
      6  CG1       16.5600    4.1450   34.9350 C.3   156  ILE156      0.0019
      7  CG2       18.2510    5.7790   34.0720 C.3   156  ILE156      0.0020
      8  CD1       16.6620    4.4770   36.4190 C.3   156  ILE156      0.0001
      9  N         15.5920    4.3610   31.9710 N.am  157  GLY157     -0.1942
     10  CA        14.6840    5.1190   31.1240 C.3   157  GLY157      0.2014
     11  C         14.8820    4.8200   29.6450 C.2   157  GLY157      0.2639
     12  O         14.8450    3.6600   29.2300 O.2   157  GLY157     -0.2714
     13  N         15.0950    5.8680   28.8520 N.am  158  GLY158     -0.1939
     14  CA        15.3030    5.7030   27.4220 C.3   158  GLY158      0.2014
     15  C         16.5180    4.8630   27.0620 C.2   158  GLY158      0.2639
     16  O         16.6110    4.3300   25.9520 O.2   158  GLY158     -0.2714
     17  N         17.4640    4.7450   27.9860 N.am  159  SER159     -0.1949
     18  CA        18.6570    3.9480   27.7230 C.3   159  SER159      0.1924
     19  C         18.4770    2.5310   28.2440 C.2   159  SER159      0.2314
     20  O         19.4450    1.7820   28.3720 O.2   159  SER159     -0.2863
     21  CB        19.8840    4.5890   28.3770 C.3   159  SER159      0.2116
     22  OG        20.1520    5.8600   27.8090 O.3   159  SER159     -0.2180
     23  N         25.0280    2.3250   28.8170 N.3   208  ALA208     -0.1231
     24  CA        24.2080    3.1530   27.9400 C.3   208  ALA208      0.1694
     25  C         23.7330    4.4150   28.6410 C.2   208  ALA208      0.2593
     26  O         22.9240    4.3580   29.5710 O.2   208  ALA208     -0.2718
     27  CB        23.0070    2.3470   27.4370 C.3   208  ALA208      0.0304
     28  N         24.2470    5.5550   28.1920 N.am  209  SER209     -0.1938
     29  CA        23.8820    6.8400   28.7700 C.3   209  SER209      0.2055
     30  C         24.2040    7.9860   27.8150 C.2   209  SER209      0.2643
     31  O         25.3680    8.2590   27.5320 O.2   209  SER209     -0.2714
     32  CB        24.6220    7.0490   30.0930 C.3   209  SER209      0.2130
     33  OG        24.3570    8.3390   30.6130 O.3   209  SER209     -0.2179
     34  N         23.1660    8.6530   27.3240 N.am  210  LYS210     -0.1963
     35  CA        23.3310    9.7720   26.4030 C.3   210  LYS210      0.1728
     36  C         24.2660   10.8360   26.9770 C.2   210  LYS210      0.2616
     37  O         25.2090   11.2710   26.3150 O.2   210  LYS210     -0.2715
     38  CB        21.9640   10.3930   26.0930 C.3   210  LYS210      0.0311
     39  CG        21.9900   11.5270   25.0750 C.3   210  LYS210      0.0038
     40  CD        20.5800   12.0140   24.7640 C.3   210  LYS210      0.0206
     41  CE        20.5790   13.1170   23.7140 C.3   210  LYS210      0.1093
     42  NZ        19.1940   13.5770   23.3880 N.3   210  LYS210     -0.1314
     43  N         23.9980   11.2430   28.2140 N.am  211  THR211     -0.1951
     44  CA        24.7920   12.2610   28.8970 C.3   211  THR211      0.1897
     45  C         25.9770   11.6520   29.6400 C.2   211  THR211      0.2313
     46  O         27.0180   12.2860   29.7980 O.2   211  THR211     -0.2863
     47  CB        23.9380   13.0260   29.9270 C.3   211  THR211      0.1794
     48  OG1       23.4550   12.1060   30.9150 O.3   211  THR211     -0.2208
     49  CG2       22.7550   13.6990   29.2520 C.3   211  THR211      0.0378
     50  N         23.9720   10.3490   34.4810 N.3   214  THR214     -0.1218
     51  CA        22.8260    9.8840   35.2590 C.3   214  THR214      0.1862
     52  C         23.3030    9.0890   36.4660 C.2   214  THR214      0.2287
     53  O         24.0480    8.1200   36.3220 O.2   214  THR214     -0.2866
     54  CB        21.9030    9.0170   34.3900 C.3   214  THR214      0.1770
     55  OG1       21.5330    9.7630   33.2240 O.3   214  THR214     -0.2211
     56  CG2       20.6450    8.6320   35.1610 C.3   214  THR214      0.0375
     57  N         22.6950    5.0610   36.5030 N.3   217  THR217     -0.1218
     58  CA        23.5570    4.3780   35.5520 C.3   217  THR217      0.1862
     59  C         25.0440    4.4450   35.8900 C.2   217  THR217      0.2287
     60  O         25.7340    3.4280   35.8440 O.2   217  THR217     -0.2866
     61  CB        23.3240    4.9260   34.1360 C.3   217  THR217      0.1770
     62  OG1       21.9410    4.7670   33.7980 O.3   217  THR217     -0.2211
     63  CG2       24.1830    4.1810   33.1180 C.3   217  THR217      0.0375
     64  N         15.9400   10.0380   24.2530 N.3   271  GLY271     -0.1210
     65  CA        16.0810    8.7510   24.9090 C.3   271  GLY271      0.1956
     66  C         14.9420    7.7910   24.6050 C.2   271  GLY271      0.2611
     67  O         15.1810    6.6250   24.2890 O.2   271  GLY271     -0.2717
     68  N         13.7070    8.2820   24.6890 N.am  272  ARG272     -0.1979
     69  CA        12.5300    7.4500   24.4420 C.3   272  ARG272      0.1597
     70  C         12.3170    7.1050   22.9640 C.2   272  ARG272      0.2287
     71  O         11.3510    6.4280   22.6090 O.2   272  ARG272     -0.2864
     72  CB        11.2750    8.1210   25.0260 C.3   272  ARG272      0.0334
     73  CG        11.0160    9.5470   24.5410 C.3   272  ARG272      0.0492
     74  CD         9.7360   10.1180   25.1600 C.3   272  ARG272      0.2205
     75  NE         9.5300   11.5290   24.8320 N.pl3 272  ARG272     -0.0865
     76  CZ        10.1780   12.5410   25.4070 C.cat 272  ARG272      0.5346
     77  NH1       11.0820   12.3090   26.3510 N.pl3 272  ARG272      0.1354
     78  NH2        9.9190   13.7930   25.0400 N.pl3 272  ARG272      0.1354
     79  N          6.0320    4.9500   28.6420 N.3   353  GLN353     -0.1245
     80  CA         7.0720    5.9800   28.7070 C.3   353  GLN353      0.1566
     81  C          7.0140    6.8790   27.4700 C.2   353  GLN353      0.2260
     82  O          6.8820    8.0990   27.5770 O.2   353  GLN353     -0.2867
     83  CB         8.4860    5.3780   28.7830 C.3   353  GLN353      0.0367
     84  CG         9.5740    6.4540   28.5690 C.3   353  GLN353      0.0905
     85  CD        11.0010    5.9870   28.8180 C.2   353  GLN353      0.2608
     86  OE1       11.9170    6.8070   28.9100 O.2   353  GLN353     -0.2717
     87  NE2       11.1980    4.6850   28.9190 N.am  353  GLN353     -0.0878
     88  N          5.7390   10.4970   28.5470 N.3   357  GLU357     -0.1245
     89  CA         6.8800   11.3940   28.6970 C.3   357  GLU357      0.1567
     90  C          6.8970   12.4260   27.5710 C.2   357  GLU357      0.2260
     91  O          7.4320   13.5260   27.7280 O.2   357  GLU357     -0.2867
     92  CB         8.1890   10.6050   28.6970 C.3   357  GLU357      0.0388
     93  CG         9.3950   11.4470   29.0740 C.3   357  GLU357      0.1160
     94  CD        10.6890   10.6680   29.0220 C.2   357  GLU357      0.3649
     95  OE1       11.7380   11.2470   29.3630 O.co2 357  GLU357     -0.2457
     96  OE2       10.6570    9.4790   28.6440 O.co2 357  GLU357     -0.2457
     97  N         11.5800   17.0670   28.1300 N.3   511  GLN511     -0.1245
     98  CA        11.0670   16.3960   29.3380 C.3   511  GLN511      0.1566
     99  C         11.6240   17.0340   30.6020 C.2   511  GLN511      0.2260
    100  O         12.3940   16.4260   31.3450 O.2   511  GLN511     -0.2867
    101  CB        11.4080   14.8990   29.3000 C.3   511  GLN511      0.0367
    102  CG        12.9070   14.6030   29.2110 C.3   511  GLN511      0.0905
    103  CD        13.4990   14.8600   27.8220 C.2   511  GLN511      0.2608
    104  OE1       12.8990   14.4920   26.8120 O.2   511  GLN511     -0.2717
    105  NE2       14.6590   15.4800   27.7140 N.am  511  GLN511     -0.0878
    106  N         11.4790   15.1820   33.8380 N.3   514  VAL514     -0.1231
    107  CA        12.4770   14.1210   33.9410 C.3   514  VAL514      0.1692
    108  C         13.8230   14.7520   34.2880 C.2   514  VAL514      0.2591
    109  O         14.5890   14.2150   35.0900 O.2   514  VAL514     -0.2718
    110  CB        12.5960   13.3420   32.6070 C.3   514  VAL514      0.0266
    111  CG1       13.8620   12.5030   32.5950 C.3   514  VAL514      0.0020
    112  CG2       11.3720   12.4530   32.4190 C.3   514  VAL514      0.0020
    113  N         14.1110   15.8980   33.6800 N.am  515  GLU515     -0.1979
    114  CA        15.3640   16.5920   33.9560 C.3   515  GLU515      0.1602
    115  C         15.3530   17.0410   35.4170 C.2   515  GLU515      0.2287
    116  O         16.3650   16.9500   36.1130 O.2   515  GLU515     -0.2864
    117  CB        15.5200   17.7970   33.0220 C.3   515  GLU515      0.0415
    118  CG        15.4110   17.4390   31.5380 C.3   515  GLU515      0.1163
    119  CD        16.4760   16.4560   31.0810 C.2   515  GLU515      0.3649
    120  OE1       16.3010   15.8380   30.0090 O.co2 515  GLU515     -0.2457
    121  OE2       17.4960   16.3040   31.7840 O.co2 515  GLU515     -0.2457
    122  N         16.3900   14.3090   37.9230 N.3   518  LYS518     -0.1245
    123  CA        17.8130   14.0070   38.0460 C.3   518  LYS518      0.1561
    124  C         18.5940   14.9660   38.9390 C.2   518  LYS518      0.2260
    125  O         19.8030   14.8090   39.1080 O.2   518  LYS518     -0.2867
    126  CB        18.4700   13.9860   36.6670 C.3   518  LYS518      0.0271
    127  CG        18.0200   12.8600   35.7670 C.3   518  LYS518      0.0035
    128  CD        18.8350   12.8770   34.4880 C.3   518  LYS518      0.0206
    129  CE        18.3400   11.8520   33.5010 C.3   518  LYS518      0.1093
    130  NZ        19.0740   11.9370   32.2080 N.3   518  LYS518     -0.1314
@<TRIPOS>BOND
     1    71    70    2
     2    70    69    1
     3    42    41    1
     4    41    40    1
     5    64    65    1
     6    67    66    2
     7    69    68    1
     8    69    72    1
     9    73    72    1
    10    73    74    1
    11    66    68   am
    12    66    65    1
    13    40    39    1
    14    75    74    1
    15    75    76    2
    16    78    76    1
    17    39    38    1
    18    76    77    1
    19    16    15    2
    20    38    35    1
    21    37    36    2
    22    35    36    1
    23    35    34    1
    24   104   103    2
    25    36    43   am
    26    15    14    1
    27    15    17   am
    28    34    30   am
    29    14    13    1
    30    27    24    1
    31    81    82    2
    32    81    80    1
    33    31    30    2
    34    90    91    2
    35    90    89    1
    36   105   103   am
    37    18    17    1
    38    18    19    1
    39    18    21    1
    40    22    21    1
    41    30    29    1
    42   103   102    1
    43    24    25    1
    44    24    23    1
    45    97    98    1
    46    28    25   am
    47    28    29    1
    48    43    44    1
    49    19    20    2
    50    88    89    1
    51    84    83    1
    52    84    85    1
    53    25    26    2
    54    79    80    1
    55    96    94   ar
    56    92    89    1
    57    92    93    1
    58    80    83    1
    59    29    32    1
    60    85    86    2
    61    85    87   am
    62    13    11   am
    63    44    45    1
    64    44    47    1
    65    94    93    1
    66    94    95   ar
    67   102   101    1
    68    12    11    2
    69    49    47    1
    70   101    98    1
    71    98    99    1
    72    45    46    2
    73    11    10    1
    74    47    48    1
    75   120   119   ar
    76    32    33    1
    77    99   100    2
    78     4     3    2
    79   119   118    1
    80   119   121   ar
    81    10     9    1
    82   118   117    1
    83     3     9   am
    84     3     2    1
    85     1     2    1
    86   130   129    1
    87   112   110    1
    88   111   110    1
    89   110   107    1
    90     2     5    1
    91   117   114    1
    92    63    61    1
    93    55    54    1
    94   129   128    1
    95   113   114    1
    96   113   108   am
    97    62    61    1
    98   106   107    1
    99   107   108    1
   100   114   115    1
   101     7     5    1
   102    61    58    1
   103     5     6    1
   104   108   109    2
   105    54    56    1
   106    54    51    1
   107    50    51    1
   108   128   127    1
   109     6     8    1
   110    51    52    1
   111   115   116    2
   112    58    59    1
   113    58    57    1
   114   127   126    1
   115    60    59    2
   116    53    52    2
   117   126   123    1
   118   122   123    1
   119   123   124    1
   120   124   125    2
