@<TRIPOS>MOLECULE
tmp/1g9fA01.pdb
 89 83 0 0 0
SMALL
GASTEIGER

@<TRIPOS>ATOM
      1  N        106.1040   35.3250   26.8530 N.3    82  ARG82      -0.1245
      2  CA       105.6220   34.6160   25.6430 C.3    82  ARG82       0.1563
      3  C        106.5750   33.4520   25.4060 C.2    82  ARG82       0.2260
      4  O        107.5350   33.5530   24.6530 O.2    82  ARG82      -0.2867
      5  CB       105.5870   35.5740   24.4690 C.3    82  ARG82       0.0307
      6  CG       104.9270   34.9000   23.2800 C.3    82  ARG82       0.0489
      7  CD       104.8370   35.8750   22.1280 C.3    82  ARG82       0.2205
      8  NE       106.1450   36.4320   21.8610 N.pl3  82  ARG82      -0.0865
      9  CZ       106.2560   37.7310   21.5940 C.cat  82  ARG82       0.5346
     10  NH1      105.1670   38.4970   21.5710 N.pl3  82  ARG82       0.1354
     11  NH2      107.4560   38.2690   21.3800 N.pl3  82  ARG82       0.1354
     12  N        107.3530   29.1010   24.5900 N.3    84  ALA84      -0.1231
     13  CA       106.8570   28.0310   23.7260 C.3    84  ALA84       0.1694
     14  C        108.0460   27.1530   23.3270 C.2    84  ALA84       0.2592
     15  O        109.1440   27.6700   23.1170 O.2    84  ALA84      -0.2718
     16  CB       106.1850   28.6220   22.4760 C.3    84  ALA84       0.0304
     17  N        107.8590   25.8320   23.2610 N.am   85  ASP85      -0.1974
     18  CA       106.5940   25.1560   23.5620 C.3    85  ASP85       0.1709
     19  C        106.7080   24.2830   24.8160 C.2    85  ASP85       0.2293
     20  O        105.7490   24.1580   25.5850 O.2    85  ASP85      -0.2864
     21  CB       106.1790   24.2800   22.3850 C.3    85  ASP85       0.1436
     22  CG       105.2130   24.9750   21.4550 C.2    85  ASP85       0.3671
     23  OD1      104.0510   25.1760   21.8660 O.co2  85  ASP85      -0.2456
     24  OD2      105.6150   25.3180   20.3210 O.co2  85  ASP85      -0.2456
     25  N        106.6090   22.0340   17.5290 N.3   102  ALA102     -0.1231
     26  CA       105.8220   23.0260   18.2590 C.3   102  ALA102      0.1694
     27  C        104.9710   22.3820   19.3620 C.2   102  ALA102      0.2592
     28  O        105.4610   21.5750   20.1520 O.2   102  ALA102     -0.2718
     29  CB       104.9340   23.8060   17.2920 C.3   102  ALA102      0.0304
     30  N        103.6940   22.7350   19.4020 N.am  103  GLY103     -0.1957
     31  CA       102.7980   22.2100   20.4200 C.3   103  GLY103      0.1869
     32  C        102.7430   20.7030   20.5920 C.2   103  GLY103      0.2309
     33  O        102.3040   20.2190   21.6330 O.2   103  GLY103     -0.2863
     34  N         99.1400   15.8270   14.4280 N.3   110  GLU110     -0.1245
     35  CA        97.7800   16.3040   14.3230 C.3   110  GLU110      0.1567
     36  C         97.0280   15.3750   13.3570 C.2   110  GLU110      0.2260
     37  O         97.6040   14.9010   12.3720 O.2   110  GLU110     -0.2867
     38  CB        97.7930   17.7380   13.7970 C.3   110  GLU110      0.0388
     39  CG        96.4240   18.3710   13.6600 C.3   110  GLU110      0.1160
     40  CD        96.5040   19.8690   13.4140 C.2   110  GLU110      0.3649
     41  OE1       97.1530   20.2860   12.4210 O.co2 110  GLU110     -0.2457
     42  OE2       95.9150   20.6290   14.2200 O.co2 110  GLU110     -0.2457
     43  N        103.7920   26.7440   26.2990 N.3   125  PHE125     -0.1241
     44  CA       102.6620   27.4130   25.6730 C.3   125  PHE125      0.1605
     45  C        101.4890   26.3980   25.7450 C.2   125  PHE125      0.2264
     46  O        101.6690   25.1850   25.5680 O.2   125  PHE125     -0.2867
     47  CB       102.9740   27.7840   24.2020 C.3   125  PHE125      0.0534
     48  CG       101.8850   28.5930   23.5240 C.ar  125  PHE125     -0.0203
     49  CD1      101.9090   29.9730   23.7170 C.ar  125  PHE125     -0.0042
     50  CD2      100.9560   28.0400   22.6540 C.ar  125  PHE125     -0.0042
     51  CE1      100.9150   30.7960   23.1580 C.ar  125  PHE125     -0.0003
     52  CE2       99.9910   28.8400   22.0810 C.ar  125  PHE125     -0.0003
     53  CZ        99.9480   30.1610   22.3660 C.ar  125  PHE125     -0.0000
     54  N         97.9980   25.1640   24.2240 N.3   127  ASN127     -0.1240
     55  CA        97.3240   25.2230   22.9400 C.3   127  ASN127      0.1653
     56  C         95.8440   24.9830   23.2170 C.2   127  ASN127      0.2266
     57  O         95.4050   25.0360   24.3690 O.2   127  ASN127     -0.2867
     58  CB        97.8950   24.1730   21.9920 C.3   127  ASN127      0.1155
     59  CG        99.3920   24.3730   21.7420 C.2   127  ASN127      0.2627
     60  OD1      100.2370   23.8770   22.4890 O.2   127  ASN127     -0.2716
     61  ND2       99.7200   25.1250   20.7020 N.am  127  ASN127     -0.0877
     62  N        109.0660   27.7280   19.9560 N.3   210  GLY210     -0.1210
     63  CA       107.8450   28.2180   19.3410 C.3   210  GLY210      0.1956
     64  C        107.7650   27.9630   17.8460 C.2   210  GLY210      0.2612
     65  O        108.7870   27.8830   17.1580 O.2   210  GLY210     -0.2717
     66  N        106.5430   27.8420   17.3400 N.am  211  LEU211     -0.1965
     67  CA       106.3380   27.5960   15.9180 C.3   211  LEU211      0.1728
     68  C        106.8270   28.7690   15.0790 C.2   211  LEU211      0.2616
     69  O        107.5390   28.5820   14.0940 O.2   211  LEU211     -0.2715
     70  CB       104.8550   27.3520   15.6210 C.3   211  LEU211      0.0311
     71  CG       104.5840   26.9300   14.1780 C.3   211  LEU211      0.0022
     72  CD1      105.5040   25.7860   13.8100 C.3   211  LEU211      0.0001
     73  CD2      103.1380   26.5080   14.0170 C.3   211  LEU211      0.0001
     74  N        106.4470   29.9750   15.4850 N.am  212  ASP212     -0.1957
     75  CA       106.8230   31.1850   14.7720 C.3   212  ASP212      0.1840
     76  C        107.5130   32.1990   15.6860 C.2   212  ASP212      0.2621
     77  O        107.7480   33.3390   15.2890 O.2   212  ASP212     -0.2715
     78  CB       105.5780   31.8100   14.1350 C.3   212  ASP212      0.1450
     79  CG       104.5310   32.2120   15.1640 C.2   212  ASP212      0.3671
     80  OD1      104.3820   31.5060   16.1830 O.co2 212  ASP212     -0.2456
     81  OD2      103.8420   33.2290   14.9470 O.co2 212  ASP212     -0.2456
     82  N        107.8200   31.7890   16.9140 N.am  213  ILE213     -0.1977
     83  CA       108.5050   32.6680   17.8600 C.3   213  ILE213      0.1596
     84  C        109.5960   31.8630   18.5410 C.2   213  ILE213      0.2287
     85  O        109.4870   30.6440   18.6910 O.2   213  ILE213     -0.2864
     86  CB       107.5610   33.2290   18.9500 C.3   213  ILE213      0.0276
     87  CG1      107.0510   32.0880   19.8330 C.3   213  ILE213      0.0022
     88  CG2      106.3990   33.9790   18.3090 C.3   213  ILE213      0.0022
     89  CD1      106.1920   32.5500   20.9850 C.3   213  ILE213      0.0001
@<TRIPOS>BOND
     1    37    36    2
     2    41    40   ar
     3    36    35    1
     4    40    39    1
     5    40    42   ar
     6    39    38    1
     7    38    35    1
     8    72    71    1
     9    73    71    1
    10    69    68    2
    11    78    75    1
    12    78    79    1
    13    71    70    1
    14    35    34    1
    15    75    74    1
    16    75    76    1
    17    81    79   ar
    18    68    74   am
    19    68    67    1
    20    79    80   ar
    21    77    76    2
    22    70    67    1
    23    76    82   am
    24    67    66    1
    25    82    83    1
    26    65    64    2
    27    29    26    1
    28    66    64   am
    29    25    26    1
    30    64    63    1
    31    83    84    1
    32    83    86    1
    33    26    27    1
    34    88    86    1
    35    84    85    2
    36    86    87    1
    37    63    62    1
    38    27    30   am
    39    27    28    2
    40    30    31    1
    41    87    89    1
    42    24    22   ar
    43    31    32    1
    44    32    33    2
    45    61    59   am
    46    11     9    1
    47    22    23   ar
    48    22    21    1
    49    10     9    1
    50     9     8    2
    51    59    58    1
    52    59    60    2
    53     8     7    1
    54    58    55    1
    55    52    53   ar
    56    52    50   ar
    57     7     6    1
    58    53    51   ar
    59    21    18    1
    60    16    13    1
    61    50    48   ar
    62    55    56    1
    63    55    54    1
    64    15    14    2
    65    51    49   ar
    66    56    57    2
    67    17    14   am
    68    17    18    1
    69     6     5    1
    70    14    13    1
    71    48    49   ar
    72    48    47    1
    73    18    19    1
    74    13    12    1
    75    47    44    1
    76     5     2    1
    77     4     3    2
    78    19    20    2
    79     3     2    1
    80    46    45    2
    81     2     1    1
    82    44    45    1
    83    44    43    1
