@<TRIPOS>MOLECULE
tmp/1g9fA00.pdb
 81 75 0 0 0
SMALL
GASTEIGER

@<TRIPOS>ATOM
      1  N        126.5790   12.8730   35.4970 N.3     9  ASN9       -0.1225
      2  CA       126.5230   14.2160   36.0490 C.3     9  ASN9        0.1785
      3  C        126.6950   15.2000   34.8880 C.2     9  ASN9        0.2597
      4  O        126.5540   16.4040   35.0580 O.2     9  ASN9       -0.2718
      5  CB       127.6250   14.4410   37.0950 C.3     9  ASN9        0.1169
      6  CG       129.0250   14.4200   36.4890 C.2     9  ASN9        0.2627
      7  OD1      129.9670   15.0030   37.0410 O.2     9  ASN9       -0.2716
      8  ND2      129.1710   13.7370   35.3520 N.am    9  ASN9       -0.0877
      9  N        126.9990   14.6750   33.7060 N.am   10  LYS10      -0.1980
     10  CA       127.1770   15.5060   32.5110 C.3    10  LYS10       0.1596
     11  C        127.1990   14.6630   31.2370 C.2    10  LYS10       0.2287
     12  O        127.2930   13.4360   31.3000 O.2    10  LYS10      -0.2864
     13  CB       128.4750   16.3080   32.6050 C.3    10  LYS10       0.0298
     14  CG       129.6720   15.3360   32.3340 C.3    10  LYS10       0.0038
     15  CD       131.0600   16.0200   32.4120 C.3    10  LYS10       0.0206
     16  CE       132.0340   15.3950   33.4370 C.3    10  LYS10       0.1093
     17  NZ       132.8140   16.3880   34.2580 N.3    10  LYS10      -0.1314
     18  N        130.7090   21.7900   26.7230 N.3    29  SER29      -0.1202
     19  CA       130.5450   22.0870   28.1390 C.3    29  SER29       0.2020
     20  C        129.7200   21.0050   28.8450 C.2    29  SER29       0.2619
     21  O        129.3470   21.1570   30.0080 O.2    29  SER29      -0.2717
     22  CB       129.8790   23.4540   28.3270 C.3    29  SER29       0.2103
     23  OG       128.6180   23.5080   27.6920 O.3    29  SER29      -0.2182
     24  N        128.8580   20.3150   27.8490 N.am   30  GLY30      -0.1942
     25  CA       128.5540   19.1770   28.6950 C.3    30  GLY30       0.2014
     26  C        127.1170   18.8710   28.9200 C.2    30  GLY30       0.2641
     27  O        126.7700   17.7880   29.3890 O.2    30  GLY30      -0.2714
     28  N        126.2320   19.8100   28.6630 N.am   31  LYS31      -0.1931
     29  CA       124.7910   19.6010   28.8460 C.3    31  LYS31       0.1813
     30  C        124.2280   19.3840   27.4310 C.2    31  LYS31       0.2332
     31  O        124.8450   19.7650   26.4540 O.2    31  LYS31      -0.2860
     32  CB       124.2380   20.7840   29.6100 C.2    31  LYS31      -0.0016
     33  CG       124.9120   22.0830   29.3890 C.2    31  LYS31      -0.0270
     34  CD       124.2610   23.4170   29.7980 C.3    31  LYS31       0.0462
     35  CE       125.3300   24.5290   29.5560 C.3    31  LYS31       0.1140
     36  NZ       124.8150   25.7480   28.8480 N.3    31  LYS31      -0.1310
     37  N        118.3960   17.1860   35.6430 N.3    72  ASN72      -0.1240
     38  CA       118.4230   18.6180   35.8600 C.3    72  ASN72       0.1653
     39  C        118.3050   19.2820   34.4900 C.2    72  ASN72       0.2266
     40  O        119.0290   18.9310   33.5520 O.2    72  ASN72      -0.2867
     41  CB       119.7320   19.0220   36.5500 C.3    72  ASN72       0.1155
     42  CG       119.7980   18.5360   37.9980 C.2    72  ASN72       0.2627
     43  OD1      118.7900   18.0600   38.5230 O.2    72  ASN72      -0.2716
     44  ND2      120.9520   18.6600   38.6520 N.am   72  ASN72      -0.0877
     45  N        117.9780   26.2630   37.3010 N.3   158  VAL158     -0.1245
     46  CA       118.0150   24.8180   37.1480 C.3   158  VAL158      0.1561
     47  C        116.9050   24.1290   37.9140 C.2   158  VAL158      0.2260
     48  O        116.7500   24.3160   39.1230 O.2   158  VAL158     -0.2867
     49  CB       119.3500   24.2200   37.6350 C.3   158  VAL158      0.0252
     50  CG1      119.2970   22.6840   37.5620 C.3   158  VAL158      0.0019
     51  CG2      120.4930   24.7510   36.7850 C.3   158  VAL158      0.0019
     52  N        115.2220   20.5670   39.1800 N.3   160  LYS160     -0.1245
     53  CA       115.5990   19.1900   39.4870 C.3   160  LYS160      0.1561
     54  C        114.3110   18.3650   39.4700 C.2   160  LYS160      0.2260
     55  O        113.3780   18.6350   40.2300 O.2   160  LYS160     -0.2867
     56  CB       116.2770   19.1190   40.8580 C.3   160  LYS160      0.0271
     57  CG       116.7660   17.7330   41.2300 C.3   160  LYS160      0.0035
     58  CD       117.7130   17.7820   42.4250 C.3   160  LYS160      0.0206
     59  CE       118.1960   16.3810   42.8040 C.3   160  LYS160      0.1093
     60  NZ       119.1870   16.3990   43.9210 N.3   160  LYS160     -0.1314
     61  N        115.7790   24.5010   43.6560 N.3   179  PRO179     -0.2116
     62  CA       116.5940   24.7540   44.8500 C.3   179  PRO179      0.1372
     63  C        116.7540   26.2350   45.1950 C.2   179  PRO179      0.2244
     64  O        116.5130   26.6490   46.3270 O.2   179  PRO179     -0.2868
     65  CB       117.9260   24.0990   44.4990 C.3   179  PRO179      0.0268
     66  CG       117.4980   22.9180   43.6680 C.3   179  PRO179      0.0207
     67  CD       116.4250   23.5160   42.7690 C.3   179  PRO179      0.0892
     68  N        121.0050   18.9040   31.8150 N.3   221  LEU221     -0.1231
     69  CA       122.3570   18.9200   32.3660 C.3   221  LEU221      0.1693
     70  C        122.8700   17.5940   32.9280 C.2   221  LEU221      0.2592
     71  O        124.0750   17.3260   32.9130 O.2   221  LEU221     -0.2718
     72  CB       122.4290   19.9940   33.4500 C.3   221  LEU221      0.0284
     73  CG       121.8580   21.3520   33.0240 C.3   221  LEU221      0.0019
     74  CD1      121.8960   22.2970   34.2100 C.3   221  LEU221      0.0001
     75  CD2      122.6550   21.9230   31.8560 C.3   221  LEU221      0.0001
     76  N        121.9620   16.7690   33.4300 N.am  222  SER222     -0.1952
     77  CA       122.3530   15.4820   33.9880 C.3   222  SER222      0.1924
     78  C        121.2130   14.5010   33.8130 C.2   222  SER222      0.2314
     79  O        120.0840   14.9000   33.5100 O.2   222  SER222     -0.2863
     80  CB       122.7080   15.6260   35.4740 C.3   222  SER222      0.2116
     81  OG       121.6070   16.1000   36.2390 O.3   222  SER222     -0.2180
@<TRIPOS>BOND
     1    31    30    2
     2    18    19    1
     3    30    29    1
     4    23    22    1
     5    24    25    1
     6    24    20   am
     7    19    22    1
     8    19    20    1
     9    28    29    1
    10    28    26   am
    11    25    26    1
    12    20    21    2
    13    29    32    1
    14    36    35    1
    15    26    27    2
    16    33    32    2
    17    33    34    1
    18    35    34    1
    19    11    12    2
    20    11    10    1
    21    68    69    1
    22    75    73    1
    23    14    15    1
    24    14    13    1
    25    69    70    1
    26    69    72    1
    27    15    16    1
    28    10    13    1
    29    10     9    1
    30    71    70    2
    31    70    76   am
    32    73    72    1
    33    73    74    1
    34    76    77    1
    35    16    17    1
    36    79    78    2
    37    40    39    2
    38     9     3   am
    39    78    77    1
    40    77    80    1
    41    39    38    1
    42     3     4    2
    43     3     2    1
    44     8     6   am
    45    80    81    1
    46     1     2    1
    47    37    38    1
    48    38    41    1
    49     2     5    1
    50     6     7    2
    51     6     5    1
    52    41    42    1
    53    51    49    1
    54    46    45    1
    55    46    49    1
    56    46    47    1
    57    50    49    1
    58    47    48    2
    59    42    43    2
    60    42    44   am
    61    52    53    1
    62    54    53    1
    63    54    55    2
    64    53    56    1
    65    56    57    1
    66    57    58    1
    67    58    59    1
    68    67    61    1
    69    67    66    1
    70    59    60    1
    71    61    62    1
    72    66    65    1
    73    65    62    1
    74    62    63    1
    75    63    64    2
