@<TRIPOS>MOLECULE
tmp/1g9hA00.pdb
 202 197 0 0 0
SMALL
GASTEIGER

@<TRIPOS>ATOM
      1  N         12.0590   37.5100   14.5860 N.3    46  TRP46      -0.1227
      2  CA        12.9660   36.3920   14.3200 C.3    46  TRP46       0.1737
      3  C         13.6480   36.5270   12.9630 C.2    46  TRP46       0.2595
      4  O         14.8110   36.1470   12.8140 O.2    46  TRP46      -0.2718
      5  CB        12.2300   35.0450   14.3900 C.3    46  TRP46       0.0564
      6  CG        11.1820   34.8950   13.3450 C.ar   46  TRP46       0.0003
      7  CD1        9.8700   35.2280   13.4660 C.ar   46  TRP46       0.0946
      8  CD2       11.3540   34.4030   11.9980 C.ar   46  TRP46       0.0152
      9  NE1        9.2080   34.9830   12.2820 N.ar   46  TRP46      -0.2442
     10  CE2       10.0900   34.4720   11.3660 C.ar   46  TRP46       0.0810
     11  CE3       12.4530   33.9080   11.2660 C.ar   46  TRP46       0.0012
     12  CZ2        9.8880   34.0660   10.0310 C.ar   46  TRP46       0.0191
     13  CZ3       12.2510   33.5040    9.9370 C.ar   46  TRP46       0.0001
     14  CH2       10.9780   33.5870    9.3370 C.ar   46  TRP46       0.0015
     15  N         12.9390   37.0870   11.9800 N.am   47  TRP47      -0.1976
     16  CA        13.4920   37.2410   10.6280 C.3    47  TRP47       0.1640
     17  C         14.6240   38.2560   10.4270 C.2    47  TRP47       0.2290
     18  O         15.1930   38.3420    9.3370 O.2    47  TRP47      -0.2864
     19  CB        12.3810   37.4170    9.5820 C.3    47  TRP47       0.0576
     20  CG        11.3350   38.4140    9.9260 C.ar   47  TRP47       0.0006
     21  CD1       10.0500   38.1570   10.3030 C.ar   47  TRP47       0.0946
     22  CD2       11.4710   39.8430    9.9010 C.ar   47  TRP47       0.0152
     23  NE1        9.3740   39.3370   10.5150 N.ar   47  TRP47      -0.2442
     24  CE2       10.2190   40.3870   10.2700 C.ar   47  TRP47       0.0810
     25  CE3       12.5280   40.7200    9.6000 C.ar   47  TRP47       0.0012
     26  CZ2        9.9930   41.7670   10.3450 C.ar   47  TRP47       0.0191
     27  CZ3       12.3060   42.0940    9.6760 C.ar   47  TRP47       0.0001
     28  CH2       11.0450   42.6020   10.0460 C.ar   47  TRP47       0.0015
     29  N         17.9380   36.8790    9.1670 N.3    50  TYR50      -0.1241
     30  CA        18.0930   36.6150    7.7500 C.3    50  TYR50       0.1605
     31  C         18.3940   37.8280    6.8650 C.2    50  TYR50       0.2264
     32  O         18.2780   37.7650    5.6400 O.2    50  TYR50      -0.2867
     33  CB        16.8920   35.8110    7.2660 C.3    50  TYR50       0.0534
     34  CG        16.8580   34.4490    7.9480 C.ar   50  TYR50      -0.0201
     35  CD1       16.1010   34.2370    9.1050 C.ar   50  TYR50      -0.0009
     36  CD2       17.6450   33.3930    7.4660 C.ar   50  TYR50      -0.0009
     37  CE1       16.1330   33.0010    9.7690 C.ar   50  TYR50       0.0417
     38  CE2       17.6880   32.1670    8.1170 C.ar   50  TYR50       0.0417
     39  CZ        16.9330   31.9770    9.2650 C.ar   50  TYR50       0.1957
     40  OH        17.0040   30.7610    9.9020 O.3    50  TYR50      -0.2866
     41  N         21.9590   36.6130   -0.1470 N.3    89  HIS89      -0.1241
     42  CA        21.7300   38.0450   -0.0300 C.3    89  HIS89       0.1621
     43  C         22.2860   38.7160    1.2140 C.2    89  HIS89       0.2264
     44  O         22.8780   38.0720    2.0960 O.2    89  HIS89      -0.2867
     45  CB        20.2060   38.2450   -0.0350 C.3    89  HIS89       0.0745
     46  CG        19.4860   37.3510    0.9370 C.ar   89  HIS89       0.0817
     47  ND1       18.9180   36.1490    0.5670 N.ar   89  HIS89      -0.2268
     48  CD2       19.3010   37.4520    2.2780 C.ar   89  HIS89       0.1154
     49  CE1       18.4220   35.5480    1.6320 C.ar   89  HIS89       0.1986
     50  NE2       18.6410   36.3180    2.6830 N.ar   89  HIS89      -0.2212
     51  N          5.6720   35.9870   -7.2290 N.3   124  ASN124     -0.1240
     52  CA         5.2510   34.6140   -6.9920 C.3   124  ASN124      0.1653
     53  C          5.2010   33.8120   -8.3040 C.2   124  ASN124      0.2266
     54  O          5.6750   32.6760   -8.3600 O.2   124  ASN124     -0.2867
     55  CB         3.8980   34.5930   -6.2710 C.3   124  ASN124      0.1155
     56  CG         3.3570   33.1840   -6.0850 C.2   124  ASN124      0.2627
     57  OD1        3.8490   32.4160   -5.2560 O.2   124  ASN124     -0.2716
     58  ND2        2.3570   32.8300   -6.8850 N.am  124  ASN124     -0.0877
     59  N          8.3990   31.8160   -9.8020 N.3   127  TYR127     -0.1241
     60  CA         8.7760   30.4720   -9.3580 C.3   127  TYR127      0.1605
     61  C          8.4310   29.3920  -10.3730 C.2   127  TYR127      0.2264
     62  O          9.1980   28.4510  -10.5720 O.2   127  TYR127     -0.2867
     63  CB         8.1070   30.1300   -8.0250 C.3   127  TYR127      0.0534
     64  CG         8.7230   30.8540   -6.8640 C.ar  127  TYR127     -0.0201
     65  CD1        8.0180   31.8410   -6.1820 C.ar  127  TYR127     -0.0009
     66  CD2       10.0310   30.5740   -6.4640 C.ar  127  TYR127     -0.0009
     67  CE1        8.6030   32.5410   -5.1270 C.ar  127  TYR127      0.0417
     68  CE2       10.6230   31.2610   -5.4150 C.ar  127  TYR127      0.0417
     69  CZ         9.9000   32.2450   -4.7530 C.ar  127  TYR127      0.1957
     70  OH        10.4770   32.9240   -3.7260 O.3   127  TYR127     -0.2866
     71  N         14.6490   38.5860   -3.2310 N.3   139  LEU139     -0.1231
     72  CA        13.7030   37.8380   -2.4090 C.3   139  LEU139      0.1693
     73  C         13.2090   38.8500   -1.3610 C.2   139  LEU139      0.2591
     74  O         13.9580   39.2460   -0.4620 O.2   139  LEU139     -0.2718
     75  CB        14.4250   36.6580   -1.7260 C.3   139  LEU139      0.0284
     76  CG        13.6040   35.7760   -0.7800 C.3   139  LEU139      0.0019
     77  CD1       12.4580   35.1150   -1.5540 C.3   139  LEU139      0.0001
     78  CD2       14.5140   34.7420   -0.1160 C.3   139  LEU139      0.0001
     79  N         11.9670   39.3020   -1.5230 N.am  140  VAL140     -0.1980
     80  CA        11.3370   40.2870   -0.6380 C.3   140  VAL140      0.1595
     81  C         12.2620   41.4890   -0.3170 C.2   140  VAL140      0.2287
     82  O         12.4650   41.8490    0.8470 O.2   140  VAL140     -0.2864
     83  CB        10.7370   39.6280    0.6480 C.3   140  VAL140      0.0276
     84  CG1        9.8020   38.4860    0.2730 C.3   140  VAL140      0.0022
     85  CG2       11.8250   39.0890    1.5420 C.3   140  VAL140      0.0022
     86  N         15.5310   41.7470   -0.3800 N.3   142  LEU142     -0.1245
     87  CA        16.8730   41.4730    0.1300 C.3   142  LEU142      0.1561
     88  C         17.8830   41.6530   -1.0040 C.2   142  LEU142      0.2260
     89  O         17.6880   41.1070   -2.0940 O.2   142  LEU142     -0.2867
     90  CB        16.9280   40.0550    0.7090 C.3   142  LEU142      0.0270
     91  CG        15.9470   39.8520    1.8770 C.3   142  LEU142      0.0019
     92  CD1       15.8460   38.3610    2.2350 C.3   142  LEU142      0.0001
     93  CD2       16.3820   40.6660    3.0830 C.3   142  LEU142      0.0001
     94  N         24.0170   24.9990    6.6940 N.3   172  ARG172     -0.1245
     95  CA        22.7260   25.0200    6.0340 C.3   172  ARG172      0.1563
     96  C         22.8850   26.1780    5.0490 C.2   172  ARG172      0.2260
     97  O         23.2480   27.2740    5.4570 O.2   172  ARG172     -0.2867
     98  CB        21.5940   25.3520    7.0170 C.3   172  ARG172      0.0307
     99  CG        20.2560   25.6080    6.3070 C.3   172  ARG172      0.0489
    100  CD        19.1620   26.0660    7.2530 C.3   172  ARG172      0.2205
    101  NE        17.8440   26.1380    6.6140 N.pl3 172  ARG172     -0.0865
    102  CZ        17.2820   27.2530    6.1400 C.cat 172  ARG172      0.5346
    103  NH1       16.0720   27.2050    5.5830 N.pl3 172  ARG172      0.1354
    104  NH2       17.9310   28.4130    6.1920 N.pl3 172  ARG172      0.1354
    105  N         21.1820   28.6540    3.2230 N.3   174  ASP174     -0.1225
    106  CA        19.8810   29.3020    3.1510 C.3   174  ASP174      0.1805
    107  C         19.5480   29.8240    1.7510 C.2   174  ASP174      0.2597
    108  O         20.4310   30.2530    1.0080 O.2   174  ASP174     -0.2718
    109  CB        19.8150   30.4490    4.1590 C.3   174  ASP174      0.1424
    110  CG        18.4950   31.1810    4.1060 C.2   174  ASP174      0.3668
    111  OD1       18.4560   32.2900    3.5350 O.co2 174  ASP174     -0.2456
    112  OD2       17.4890   30.6350    4.5970 O.co2 174  ASP174     -0.2456
    113  N         18.2690   29.7370    1.3920 N.am  175  ALA175     -0.1979
    114  CA        17.7720   30.2170    0.1100 C.3   175  ALA175      0.1597
    115  C         18.5840   29.7210   -1.0920 C.2   175  ALA175      0.2287
    116  O         18.8400   30.4870   -2.0260 O.2   175  ALA175     -0.2864
    117  CB        17.7230   31.7700    0.1290 C.3   175  ALA175      0.0319
    118  N         17.7620   27.8330   -3.6060 N.3   177  LYS177     -0.1231
    119  CA        17.0300   27.8720   -4.8700 C.3   177  LYS177      0.1693
    120  C         17.2880   29.1900   -5.6190 C.2   177  LYS177      0.2592
    121  O         17.2180   29.2610   -6.8520 O.2   177  LYS177     -0.2718
    122  CB        15.5220   27.7470   -4.6260 C.3   177  LYS177      0.0285
    123  CG        14.7200   27.6960   -5.9230 C.3   177  LYS177      0.0035
    124  CD        13.2470   27.9980   -5.7130 C.3   177  LYS177      0.0206
    125  CE        12.5370   26.8430   -5.0640 C.3   177  LYS177      0.1093
    126  NZ        11.1270   27.1970   -4.7960 N.3   177  LYS177     -0.1314
    127  N         17.6040   30.2230   -4.8490 N.am  178  HIS178     -0.1976
    128  CA        17.8490   31.5500   -5.3920 C.3   178  HIS178      0.1656
    129  C         19.2690   31.7700   -5.8800 C.2   178  HIS178      0.2291
    130  O         19.6250   32.8640   -6.3240 O.2   178  HIS178     -0.2864
    131  CB        17.4240   32.5880   -4.3610 C.3   178  HIS178      0.0771
    132  CG        15.9780   32.4710   -3.9800 C.ar  178  HIS178      0.0820
    133  ND1       14.9670   33.0190   -4.7390 N.ar  178  HIS178     -0.2267
    134  CD2       15.3700   31.7940   -2.9780 C.ar  178  HIS178      0.1154
    135  CE1       13.7980   32.6810   -4.2270 C.ar  178  HIS178      0.1986
    136  NE2       14.0140   31.9370   -3.1570 N.ar  178  HIS178     -0.2212
    137  N         18.6920   24.5150    1.4190 N.3   200  GLU200     -0.1245
    138  CA        17.2560   24.7470    1.5050 C.3   200  GLU200      0.1567
    139  C         16.6600   25.0450    0.1280 C.2   200  GLU200      0.2260
    140  O         16.9080   26.1040   -0.4690 O.2   200  GLU200     -0.2867
    141  CB        16.9190   25.8930    2.4590 C.3   200  GLU200      0.0388
    142  CG        15.4170   26.0630    2.6390 C.3   200  GLU200      0.1160
    143  CD        14.9380   27.4930    2.4550 C.2   200  GLU200      0.3649
    144  OE1       15.7010   28.3290    1.9320 O.co2 200  GLU200     -0.2457
    145  OE2       13.7820   27.7730    2.8300 O.co2 200  GLU200     -0.2457
    146  N         12.8310   24.5490   -1.5910 N.3   202  ILE202     -0.1245
    147  CA        11.4340   24.1480   -1.4620 C.3   202  ILE202      0.1561
    148  C         10.9220   23.7550   -2.8410 C.2   202  ILE202      0.2260
    149  O         10.7530   24.6060   -3.7120 O.2   202  ILE202     -0.2867
    150  CB        10.5580   25.2840   -0.8750 C.3   202  ILE202      0.0252
    151  CG1       11.1160   25.7080    0.4930 C.3   202  ILE202      0.0019
    152  CG2        9.1060   24.8020   -0.7490 C.3   202  ILE202      0.0019
    153  CD1       10.4710   26.9370    1.1330 C.3   202  ILE202      0.0001
    154  N          8.1160   23.7440  -10.3440 N.3   207  GLU207     -0.1245
    155  CA         8.9960   24.8950  -10.2010 C.3   207  GLU207      0.1567
    156  C          9.8990   24.9810  -11.4350 C.2   207  GLU207      0.2260
    157  O         10.1940   23.9630  -12.0690 O.2   207  GLU207     -0.2867
    158  CB         9.8850   24.7210   -8.9580 C.3   207  GLU207      0.0388
    159  CG         9.1620   24.6500   -7.6040 C.3   207  GLU207      0.1160
    160  CD         8.7690   26.0150   -7.0690 C.2   207  GLU207      0.3649
    161  OE1        9.5900   26.9520   -7.1560 O.co2 207  GLU207     -0.2457
    162  OE2        7.6440   26.1520   -6.5500 O.co2 207  GLU207     -0.2457
    163  N          9.5040   22.9990   10.0550 N.3   262  ASN262     -0.1225
    164  CA        10.7080   23.8030   10.2560 C.3   262  ASN262      0.1785
    165  C         10.2480   25.2070   10.6970 C.2   262  ASN262      0.2597
    166  O          9.0370   25.4400   10.8170 O.2   262  ASN262     -0.2718
    167  CB        11.6450   23.8000    9.0290 C.3   262  ASN262      0.1169
    168  CG        11.2020   24.7370    7.9120 C.2   262  ASN262      0.2627
    169  OD1       10.0620   25.2050    7.8750 O.2   262  ASN262     -0.2716
    170  ND2       12.1170   25.0020    6.9780 N.am  262  ASN262     -0.0877
    171  N         11.1850   26.1090   10.9920 N.am  263  HIS263     -0.1961
    172  CA        10.8220   27.4500   11.4610 C.3   263  HIS263      0.1787
    173  C          9.9210   28.2610   10.5210 C.2   263  HIS263      0.2620
    174  O          9.1260   29.0840   10.9830 O.2   263  HIS263     -0.2715
    175  CB        12.0700   28.2530   11.8590 C.3   263  HIS263      0.0785
    176  CG        12.8980   28.7140   10.7000 C.ar  263  HIS263      0.0821
    177  ND1       13.6500   27.8550    9.9290 N.ar  263  HIS263     -0.2267
    178  CD2       13.0920   29.9510   10.1800 C.ar  263  HIS263      0.1154
    179  CE1       14.2700   28.5360    8.9820 C.ar  263  HIS263      0.1986
    180  NE2       13.9470   29.8100    9.1130 N.ar  263  HIS263     -0.2212
    181  N         10.0510   28.0410    9.2130 N.am  264  ASP264     -0.1971
    182  CA         9.2290   28.7360    8.2240 C.3   264  ASP264      0.1709
    183  C          7.8150   28.1720    8.1220 C.2   264  ASP264      0.2293
    184  O          6.8350   28.8920    8.3180 O.2   264  ASP264     -0.2864
    185  CB         9.8400   28.6490    6.8200 C.3   264  ASP264      0.1436
    186  CG        10.8870   29.7100    6.5470 C.2   264  ASP264      0.3671
    187  OD1       10.9770   30.7030    7.2950 O.co2 264  ASP264     -0.2456
    188  OD2       11.6120   29.5520    5.5460 O.co2 264  ASP264     -0.2456
    189  N          4.8650   29.8870    6.1250 N.3   269  HIS269     -0.1226
    190  CA         5.7340   30.2750    5.0100 C.3   269  HIS269      0.1752
    191  C          6.2090   29.0310    4.2890 C.2   269  HIS269      0.2596
    192  O          7.0370   28.3030    4.8160 O.2   269  HIS269     -0.2718
    193  CB         6.9740   31.0370    5.5010 C.3   269  HIS269      0.0759
    194  CG         6.6680   32.3720    6.1020 C.ar  269  HIS269      0.0818
    195  ND1        6.1420   33.4170    5.3700 N.ar  269  HIS269     -0.2268
    196  CD2        6.7760   32.8210    7.3760 C.ar  269  HIS269      0.1154
    197  CE1        5.9310   34.4490    6.1680 C.ar  269  HIS269      0.1986
    198  NE2        6.3070   34.1120    7.3910 N.ar  269  HIS269     -0.2212
    199  N          5.6800   28.7860    3.0930 N.am  270  GLY270     -0.1957
    200  CA         6.0820   27.6240    2.3170 C.3   270  GLY270      0.1869
    201  C          5.3840   26.3390    2.7150 C.2   270  GLY270      0.2309
    202  O          5.7660   25.2540    2.2530 O.2   270  GLY270     -0.2863
@<TRIPOS>BOND
     1   157   156    2
     2   156   155    1
     3    62    61    2
     4    61    60    1
     5   154   155    1
     6   155   158    1
     7    59    60    1
     8    60    63    1
     9   158   159    1
    10    54    53    2
    11    53    52    1
    12    63    64    1
    13   159   160    1
    14    51    52    1
    15   161   160   ar
    16   160   162   ar
    17    52    55    1
    18    58    56   am
    19    64    66   ar
    20    64    65   ar
    21   121   120    2
    22    66    68   ar
    23   130   129    2
    24    55    56    1
    25    65    67   ar
    26    56    57    2
    27   123   124    1
    28   123   122    1
    29   129   128    1
    30   124   125    1
    31   120   119    1
    32   120   127   am
    33    68    69   ar
    34   128   127    1
    35   128   131    1
    36    67    69   ar
    37   125   126    1
    38   119   122    1
    39   119   118    1
    40    69    70    1
    41   133   135   ar
    42   133   132   ar
    43   131   132    1
    44   135   136   ar
    45   132   134   ar
    46   149   148    2
    47    71    72    1
    48   136   134   ar
    49   148   147    1
    50    72    75    1
    51    72    73    1
    52    89    88    2
    53   116   115    2
    54    75    76    1
    55   146   147    1
    56    77    76    1
    57    79    73   am
    58    79    80    1
    59   147   150    1
    60    73    74    2
    61   115   114    1
    62    88    87    1
    63   150   152    1
    64   150   151    1
    65    76    78    1
    66    80    81    1
    67    80    83    1
    68   140   139    2
    69    86    87    1
    70    81    82    2
    71    41    42    1
    72    45    42    1
    73    45    46    1
    74    42    43    1
    75   114   117    1
    76   114   113    1
    77   139   138    1
    78    87    90    1
    79    84    83    1
    80   151   153    1
    81    47    46   ar
    82    47    49   ar
    83    83    85    1
    84    90    91    1
    85    46    48   ar
    86   108   107    2
    87    43    44    2
    88   113   107   am
    89   137   138    1
    90   138   141    1
    91    49    50   ar
    92   107   106    1
    93    91    92    1
    94    91    93    1
    95   144   143   ar
    96   202   201    2
    97    48    50   ar
    98   200   201    1
    99   200   199    1
   100   143   142    1
   101   143   145   ar
   102   141   142    1
   103   199   191   am
   104   106   105    1
   105   106   109    1
   106   111   110   ar
   107   110   109    1
   108   110   112   ar
   109   191   192    2
   110   191   190    1
   111   190   193    1
   112   190   189    1
   113    96    97    2
   114    96    95    1
   115   195   194   ar
   116   195   197   ar
   117   193   194    1
   118   188   186   ar
   119   103   102    1
   120    32    31    2
   121    95    94    1
   122    95    98    1
   123   194   196   ar
   124   102   104    1
   125   102   101    2
   126   197   198   ar
   127    99    98    1
   128    99   100    1
   129   186   185    1
   130   186   187   ar
   131   101   100    1
   132   185   182    1
   133    31    30    1
   134   170   168   am
   135    33    30    1
   136    33    34    1
   137   196   198   ar
   138    36    34   ar
   139    36    38   ar
   140    30    29    1
   141   169   168    2
   142   168   167    1
   143    34    35   ar
   144    38    39   ar
   145   183   182    1
   146   183   184    2
   147   182   181    1
   148   179   180   ar
   149   179   177   ar
   150   167   164    1
   151    35    37   ar
   152   180   178   ar
   153   181   173   am
   154    39    37   ar
   155    39    40    1
   156    14    13   ar
   157    14    12   ar
   158    18    17    2
   159    19    20    1
   160    19    16    1
   161    25    27   ar
   162    25    22   ar
   163    27    28   ar
   164    22    20   ar
   165    22    24   ar
   166    20    21   ar
   167   177   176   ar
   168    13    11   ar
   169    12    10   ar
   170    28    26   ar
   171   163   164    1
   172   178   176   ar
   173   164   165    1
   174    24    26   ar
   175    24    23   ar
   176    21    23   ar
   177    17    16    1
   178   173   174    2
   179   173   172    1
   180    16    15    1
   181   165   166    2
   182   165   171   am
   183   176   175    1
   184   171   172    1
   185    11     8   ar
   186    10     8   ar
   187    10     9   ar
   188   172   175    1
   189    15     3   am
   190     8     6   ar
   191     9     7   ar
   192     4     3    2
   193     3     2    1
   194     6     7   ar
   195     6     5    1
   196     2     5    1
   197     2     1    1
