@<TRIPOS>MOLECULE
tmp/1g9jA03.pdb
 186 187 0 0 0
SMALL
GASTEIGER

@<TRIPOS>ATOM
      1  N         74.1710   97.3520   51.6780 N.3    44  GLN44      -0.1231
      2  CA        74.1810   96.7030   50.3680 C.3    44  GLN44       0.1698
      3  C         73.4170   95.3960   50.5720 C.2    44  GLN44       0.2592
      4  O         72.1880   95.3820   50.5570 O.2    44  GLN44      -0.2718
      5  CB        75.6260   96.4140   49.9450 C.3    44  GLN44       0.0381
      6  CG        75.8560   96.2050   48.4510 C.3    44  GLN44       0.0905
      7  CD        76.1460   97.5020   47.7080 C.2    44  GLN44       0.2608
      8  OE1       76.8570   98.3750   48.2090 O.2    44  GLN44      -0.2717
      9  NE2       75.6130   97.6240   46.4980 N.am   44  GLN44      -0.0878
     10  N         74.1480   94.3010   50.7670 N.am   45  ALA45      -0.1980
     11  CA        73.5320   93.0010   51.0260 C.3    45  ALA45       0.1597
     12  C         73.3700   93.0400   52.5560 C.2    45  ALA45       0.2287
     13  O         72.3010   92.7440   53.0850 O.2    45  ALA45      -0.2864
     14  CB        74.4450   91.8570   50.5920 C.3    45  ALA45       0.0319
     15  N         75.5290   82.3820   56.7490 N.3   154  TRP154     -0.1241
     16  CA        75.9370   83.4710   55.8650 C.3   154  TRP154      0.1605
     17  C         76.2820   84.8580   56.3860 C.2   154  TRP154      0.2264
     18  O         76.9800   85.6040   55.7030 O.2   154  TRP154     -0.2867
     19  CB        74.9110   83.6310   54.7390 C.3   154  TRP154      0.0550
     20  CG        73.7690   84.5360   55.0900 C.ar  154  TRP154      0.0003
     21  CD1       72.6680   84.2250   55.8340 C.ar  154  TRP154      0.0946
     22  CD2       73.6340   85.9130   54.7260 C.ar  154  TRP154      0.0152
     23  NE1       71.8520   85.3250   55.9540 N.ar  154  TRP154     -0.2442
     24  CE2       72.4220   86.3760   55.2850 C.ar  154  TRP154      0.0810
     25  CE3       74.4230   86.8040   53.9810 C.ar  154  TRP154      0.0012
     26  CZ2       71.9770   87.6920   55.1250 C.ar  154  TRP154      0.0191
     27  CZ3       73.9790   88.1170   53.8210 C.ar  154  TRP154      0.0001
     28  CH2       72.7660   88.5440   54.3920 C.ar  154  TRP154      0.0015
     29  N         67.0300   88.7720   56.2670 N.3   180  PHE180     -0.1227
     30  CA        65.9880   88.4100   55.3110 C.3   180  PHE180      0.1736
     31  C         65.1400   87.2240   55.7540 C.2   180  PHE180      0.2595
     32  O         65.6640   86.1860   56.1490 O.2   180  PHE180     -0.2718
     33  CB        66.6180   88.1090   53.9500 C.3   180  PHE180      0.0547
     34  CG        67.4520   89.2330   53.4130 C.ar  180  PHE180     -0.0202
     35  CD1       66.8550   90.4190   52.9910 C.ar  180  PHE180     -0.0042
     36  CD2       68.8400   89.1240   53.3640 C.ar  180  PHE180     -0.0042
     37  CE1       67.6310   91.4840   52.5310 C.ar  180  PHE180     -0.0003
     38  CE2       69.6230   90.1820   52.9050 C.ar  180  PHE180     -0.0003
     39  CZ        69.0180   91.3630   52.4890 C.ar  180  PHE180     -0.0000
     40  N         63.8210   87.3820   55.6570 N.am  181  GLN181     -0.1979
     41  CA        62.8810   86.3380   56.0500 C.3   181  GLN181      0.1601
     42  C         61.5290   86.4530   55.3450 C.2   181  GLN181      0.2287
     43  O         60.8060   85.4650   55.2270 O.2   181  GLN181     -0.2864
     44  CB        62.6100   86.4100   57.5600 C.3   181  GLN181      0.0394
     45  CG        63.7420   85.9800   58.4650 C.3   181  GLN181      0.0908
     46  CD        63.9660   84.4840   58.4330 C.2   181  GLN181      0.2608
     47  OE1       63.0420   83.7070   58.6580 O.2   181  GLN181     -0.2717
     48  NE2       65.1980   84.0720   58.1530 N.am  181  GLN181     -0.0878
     49  N         60.1260   87.1030   51.9640 N.3   183  GLY183     -0.1210
     50  CA        59.8660   87.1630   50.5320 C.3   183  GLY183      0.1956
     51  C         60.6730   88.0560   49.6080 C.2   183  GLY183      0.2611
     52  O         61.4650   88.8960   50.0390 O.2   183  GLY183     -0.2717
     53  N         60.4170   87.8790   48.3130 N.am  184  GLU184     -0.1979
     54  CA        61.1150   88.5960   47.2520 C.3   184  GLU184      0.1602
     55  C         61.0750   90.1170   47.2960 C.2   184  GLU184      0.2287
     56  O         61.8940   90.7710   46.6510 O.2   184  GLU184     -0.2864
     57  CB        60.6180   88.1190   45.8800 C.3   184  GLU184      0.0415
     58  CG        59.1250   88.3110   45.6410 C.3   184  GLU184      0.1163
     59  CD        58.7170   87.9930   44.2080 C.2   184  GLU184      0.3649
     60  OE1       59.1100   86.9230   43.7010 O.co2 184  GLU184     -0.2457
     61  OE2       57.9990   88.8090   43.5950 O.co2 184  GLU184     -0.2457
     62  N         61.2340   91.8840   50.2350 N.3   186  GLU186     -0.1231
     63  CA        61.8780   92.4080   51.4260 C.3   186  GLU186      0.1699
     64  C         63.3360   92.6930   51.0980 C.2   186  GLU186      0.2593
     65  O         64.1670   91.7850   51.0860 O.2   186  GLU186     -0.2718
     66  CB        61.7920   91.4200   52.5900 C.3   186  GLU186      0.0402
     67  CG        62.3560   91.9920   53.8780 C.3   186  GLU186      0.1161
     68  CD        62.3770   90.9890   55.0150 C.2   186  GLU186      0.3649
     69  OE1       62.8890   89.8690   54.8130 O.co2 186  GLU186     -0.2457
     70  OE2       61.8940   91.3310   56.1160 O.co2 186  GLU186     -0.2457
     71  N         63.6370   93.9540   50.8140 N.am  187  SER187     -0.1938
     72  CA        65.0060   94.3540   50.4980 C.3   187  SER187      0.2055
     73  C         65.8000   94.4800   51.7910 C.2   187  SER187      0.2644
     74  O         65.2770   94.2640   52.8780 O.2   187  SER187     -0.2714
     75  CB        65.0190   95.7060   49.7900 C.3   187  SER187      0.2130
     76  OG        64.6260   96.7350   50.6850 O.3   187  SER187     -0.2179
     77  N         67.0670   94.8490   51.6560 N.am  188  THR188     -0.1936
     78  CA        67.9440   95.0360   52.8010 C.3   188  THR188      0.2028
     79  C         67.3690   96.1140   53.7250 C.2   188  THR188      0.2642
     80  O         67.5830   96.0910   54.9360 O.2   188  THR188     -0.2714
     81  CB        69.3390   95.4820   52.3260 C.3   188  THR188      0.1808
     82  OG1       69.8320   94.5410   51.3560 O.3   188  THR188     -0.2208
     83  CG2       70.2970   95.5620   53.4930 C.3   188  THR188      0.0379
     84  N         66.6250   97.0490   53.1440 N.am  189  TRP189     -0.1973
     85  CA        66.0420   98.1550   53.9050 C.3   189  TRP189      0.1640
     86  C         64.7510   97.8310   54.6610 C.2   189  TRP189      0.2290
     87  O         64.3110   98.6230   55.4960 O.2   189  TRP189     -0.2864
     88  CB        65.7560   99.3370   52.9680 C.3   189  TRP189      0.0576
     89  CG        66.9220   99.7670   52.1450 C.ar  189  TRP189      0.0006
     90  CD1       67.2430   99.3460   50.8850 C.ar  189  TRP189      0.0946
     91  CD2       67.9420  100.6890   52.5330 C.ar  189  TRP189      0.0152
     92  NE1       68.4030   99.9550   50.4630 N.ar  189  TRP189     -0.2442
     93  CE2       68.8520  100.7850   51.4570 C.ar  189  TRP189      0.0810
     94  CE3       68.1750  101.4470   53.6890 C.ar  189  TRP189      0.0012
     95  CZ2       69.9800  101.6080   51.5020 C.ar  189  TRP189      0.0191
     96  CZ3       69.2990  102.2690   53.7340 C.ar  189  TRP189      0.0001
     97  CH2       70.1860  102.3410   52.6450 C.ar  189  TRP189      0.0015
     98  N         71.2270   79.8580   58.0600 N.3   226  THR226     -0.1218
     99  CA        71.0060   79.8770   56.6190 C.3   226  THR226      0.1862
    100  C         72.3480   79.9000   55.9000 C.2   226  THR226      0.2287
    101  O         73.1980   80.7470   56.1740 O.2   226  THR226     -0.2866
    102  CB        70.1950   81.1290   56.2020 C.3   226  THR226      0.1770
    103  OG1       68.8860   81.0670   56.7870 O.3   226  THR226     -0.2211
    104  CG2       70.0670   81.2090   54.6850 C.3   226  THR226      0.0375
    105  N         69.5690   78.9530   45.9670 N.3   298  TRP298     -0.1227
    106  CA        69.8980   80.1350   46.7550 C.3   298  TRP298      0.1737
    107  C         70.3090   79.8690   48.1960 C.2   298  TRP298      0.2595
    108  O         71.0110   80.6820   48.8010 O.2   298  TRP298     -0.2718
    109  CB        68.7400   81.1350   46.7180 C.3   298  TRP298      0.0564
    110  CG        69.1780   82.5360   47.0300 C.ar  298  TRP298      0.0003
    111  CD1       69.0500   83.1910   48.2180 C.ar  298  TRP298      0.0946
    112  CD2       69.8820   83.4280   46.1530 C.ar  298  TRP298      0.0152
    113  NE1       69.6320   84.4350   48.1420 N.ar  298  TRP298     -0.2442
    114  CE2       70.1510   84.6080   46.8850 C.ar  298  TRP298      0.0810
    115  CE3       70.3160   83.3430   44.8210 C.ar  298  TRP298      0.0012
    116  CZ2       70.8340   85.6990   46.3300 C.ar  298  TRP298      0.0191
    117  CZ3       70.9970   84.4290   44.2660 C.ar  298  TRP298      0.0001
    118  CH2       71.2480   85.5910   45.0220 C.ar  298  TRP298      0.0015
    119  N         69.9000   78.7310   48.7430 N.am  299  TYR299     -0.1976
    120  CA        70.2500   78.4140   50.1180 C.3   299  TYR299      0.1639
    121  C         69.7340   77.0660   50.5720 C.2   299  TYR299      0.2290
    122  O         68.9720   76.3950   49.8730 O.2   299  TYR299     -0.2864
    123  CB        69.6530   79.4700   51.0690 C.3   299  TYR299      0.0560
    124  CG        68.1240   79.5050   51.0820 C.ar  299  TYR299     -0.0198
    125  CD1       67.3820   78.5490   51.7840 C.ar  299  TYR299     -0.0009
    126  CD2       67.4210   80.4640   50.3520 C.ar  299  TYR299     -0.0009
    127  CE1       65.9780   78.5480   51.7530 C.ar  299  TYR299      0.0417
    128  CE2       66.0180   80.4720   50.3160 C.ar  299  TYR299      0.0417
    129  CZ        65.3070   79.5090   51.0160 C.ar  299  TYR299      0.1957
    130  OH        63.9260   79.5050   50.9600 O.3   299  TYR299     -0.2866
    131  N         64.5270   77.8750   44.3130 N.3   318  HIS318     -0.1241
    132  CA        64.9340   78.9110   43.3660 C.3   318  HIS318      0.1621
    133  C         66.4090   78.8330   42.9870 C.2   318  HIS318      0.2264
    134  O         67.2830   78.7860   43.8560 O.2   318  HIS318     -0.2867
    135  CB        64.6350   80.2850   43.9630 C.3   318  HIS318      0.0745
    136  CG        63.2840   80.3880   44.5990 C.ar  318  HIS318      0.0817
    137  ND1       62.1220   80.0530   43.9380 N.ar  318  HIS318     -0.2268
    138  CD2       62.9070   80.8260   45.8240 C.ar  318  HIS318      0.1154
    139  CE1       61.0870   80.2830   44.7270 C.ar  318  HIS318      0.1986
    140  NE2       61.5360   80.7540   45.8770 N.ar  318  HIS318     -0.2212
    141  N         74.9770   81.8860   41.1940 N.3   323  TYR323     -0.1241
    142  CA        75.4460   81.0820   42.3170 C.3   323  TYR323      0.1605
    143  C         76.1170   79.7800   41.9030 C.2   323  TYR323      0.2264
    144  O         76.7070   79.0940   42.7390 O.2   323  TYR323     -0.2867
    145  CB        74.2740   80.7610   43.2590 C.3   323  TYR323      0.0534
    146  CG        74.1180   81.7220   44.4190 C.ar  323  TYR323     -0.0201
    147  CD1       74.4020   83.0780   44.2700 C.ar  323  TYR323     -0.0009
    148  CD2       73.6870   81.2720   45.6700 C.ar  323  TYR323     -0.0009
    149  CE1       74.2670   83.9650   45.3370 C.ar  323  TYR323      0.0417
    150  CE2       73.5440   82.1490   46.7410 C.ar  323  TYR323      0.0417
    151  CZ        73.8380   83.4950   46.5670 C.ar  323  TYR323      0.1957
    152  OH        73.7060   84.3730   47.6230 O.3   323  TYR323     -0.2866
    153  N         64.6060   84.6410   43.1180 N.3   402  VAL402     -0.1231
    154  CA        64.7100   84.9680   44.5360 C.3   402  VAL402      0.1692
    155  C         64.2880   86.3490   45.0490 C.2   402  VAL402      0.2592
    156  O         63.5150   86.4360   46.0040 O.2   402  VAL402     -0.2718
    157  CB        66.1530   84.6730   45.0220 C.3   402  VAL402      0.0266
    158  CG1       66.2650   84.8940   46.5200 C.3   402  VAL402      0.0020
    159  CG2       66.5230   83.2340   44.6720 C.3   402  VAL402      0.0020
    160  N         64.7920   87.4270   44.4580 N.am  403  TYR403     -0.1976
    161  CA        64.4100   88.7490   44.9470 C.3   403  TYR403      0.1639
    162  C         64.1860   89.7720   43.8410 C.2   403  TYR403      0.2290
    163  O         64.7560   89.6640   42.7570 O.2   403  TYR403     -0.2864
    164  CB        65.4400   89.2460   45.9730 C.3   403  TYR403      0.0560
    165  CG        66.8310   89.4990   45.4420 C.ar  403  TYR403     -0.0198
    166  CD1       67.1780   90.7380   44.9070 C.ar  403  TYR403     -0.0009
    167  CD2       67.8190   88.5130   45.5200 C.ar  403  TYR403     -0.0009
    168  CE1       68.4730   90.9990   44.4700 C.ar  403  TYR403      0.0417
    169  CE2       69.1200   88.7620   45.0830 C.ar  403  TYR403      0.0417
    170  CZ        69.4410   90.0100   44.5610 C.ar  403  TYR403      0.1957
    171  OH        70.7250   90.2660   44.1410 O.3   403  TYR403     -0.2866
    172  N         63.7710   93.4750   44.7020 N.3   405  ASP405     -0.1225
    173  CA        63.9820   94.8480   45.1680 C.3   405  ASP405      0.1790
    174  C         65.4590   95.0930   45.5110 C.2   405  ASP405      0.2439
    175  O         65.8460   95.0290   46.6770 O.2   405  ASP405     -0.2733
    176  CB        63.1070   95.0990   46.4050 C.3   405  ASP405      0.1423
    177  CG        63.0670   96.5620   46.8320 C.2   405  ASP405      0.3668
    178  OD1       63.8280   97.3870   46.2890 O.co2 405  ASP405     -0.2456
    179  OD2       62.2650   96.8830   47.7370 O.co2 405  ASP405     -0.2456
    180  N         66.3070   95.3490   44.4980 N.am  406  PRO406     -0.2729
    181  CA        65.9930   95.4210   43.0670 C.3   406  PRO406      0.1401
    182  C         66.0970   94.0270   42.4440 C.2   406  PRO406      0.2269
    183  O         66.3670   93.0550   43.1480 O.2   406  PRO406     -0.2865
    184  CB        67.0590   96.3720   42.5400 C.3   406  PRO406      0.0296
    185  CG        68.2510   95.9650   43.3440 C.3   406  PRO406      0.0237
    186  CD        67.6910   95.7960   44.7460 C.3   406  PRO406      0.0939
@<TRIPOS>BOND
     1   141   142    1
     2   143   142    1
     3   143   144    2
     4   142   145    1
     5   182   181    1
     6   182   183    2
     7   184   181    1
     8   184   185    1
     9   163   162    2
    10   133   132    1
    11   133   134    2
    12   181   180    1
    13   153   154    1
    14   145   146    1
    15   185   186    1
    16   132   135    1
    17   132   131    1
    18    61    59   ar
    19    60    59   ar
    20   162   161    1
    21   137   136   ar
    22   137   139   ar
    23   135   136    1
    24   171   170    1
    25    59    58    1
    26   117   115   ar
    27   117   118   ar
    28   147   146   ar
    29   147   149   ar
    30   146   148   ar
    31   160   161    1
    32   160   155   am
    33   168   170   ar
    34   168   166   ar
    35   180   186    1
    36   180   174   am
    37   154   157    1
    38   154   155    1
    39   170   169   ar
    40   136   138   ar
    41   159   157    1
    42   172   173    1
    43   139   140   ar
    44   115   112   ar
    45   166   165   ar
    46   161   164    1
    47   118   116   ar
    48   157   158    1
    49   155   156    2
    50   169   167   ar
    51   173   174    1
    52   173   176    1
    53   149   151   ar
    54   165   167   ar
    55   165   164    1
    56   174   175    2
    57    58    57    1
    58   148   150   ar
    59   138   140   ar
    60    57    54    1
    61   105   106    1
    62   112   114   ar
    63   112   110   ar
    64   178   177   ar
    65   116   114   ar
    66   176   177    1
    67     9     7   am
    68   151   150   ar
    69   151   152    1
    70    56    55    2
    71   109   106    1
    72   109   110    1
    73   106   107    1
    74   177   179   ar
    75   114   113   ar
    76   110   111   ar
    77    54    55    1
    78    54    53    1
    79     7     8    2
    80     7     6    1
    81   113   111   ar
    82   107   119   am
    83   107   108    2
    84    53    51   am
    85     6     5    1
    86   119   120    1
    87    51    52    2
    88    51    50    1
    89    75    72    1
    90    75    76    1
    91   122   121    2
    92     5     2    1
    93   120   121    1
    94   120   123    1
    95    62    63    1
    96   128   126   ar
    97   128   129   ar
    98   126   124   ar
    99     2     3    1
   100     2     1    1
   101    92    90   ar
   102    92    93   ar
   103    72    71    1
   104    72    73    1
   105    50    49    1
   106     4     3    2
   107     3    10   am
   108    14    11    1
   109    10    11    1
   110    71    64   am
   111    90    89   ar
   112   130   129    1
   113   129   127   ar
   114    11    12    1
   115   123   124    1
   116   124   125   ar
   117    65    64    2
   118    64    63    1
   119    82    81    1
   120    63    66    1
   121    93    95   ar
   122    93    91   ar
   123    95    97   ar
   124    77    73   am
   125    77    78    1
   126   127   125   ar
   127    73    74    2
   128    89    91   ar
   129    89    88    1
   130    81    78    1
   131    81    83    1
   132    39    37   ar
   133    39    38   ar
   134    37    35   ar
   135    91    94   ar
   136    12    13    2
   137    66    67    1
   138    97    96   ar
   139    78    79    1
   140    38    36   ar
   141    88    85    1
   142    35    34   ar
   143    84    79   am
   144    84    85    1
   145    36    34   ar
   146    34    33    1
   147    94    96   ar
   148    79    80    2
   149    27    25   ar
   150    27    28   ar
   151    67    68    1
   152    85    86    1
   153    33    30    1
   154    25    22   ar
   155    28    26   ar
   156    86    87    2
   157   104   102    1
   158    22    20   ar
   159    22    24   ar
   160    19    20    1
   161    19    16    1
   162    69    68   ar
   163    68    70   ar
   164    20    21   ar
   165    26    24   ar
   166    43    42    2
   167    24    23   ar
   168    30    31    1
   169    30    29    1
   170    42    41    1
   171    40    31   am
   172    40    41    1
   173    18    17    2
   174    31    32    2
   175    21    23   ar
   176    16    17    1
   177    16    15    1
   178   100   101    2
   179   100    99    1
   180    41    44    1
   181   102    99    1
   182   102   103    1
   183    99    98    1
   184    44    45    1
   185    48    46   am
   186    46    45    1
   187    46    47    2
