@<TRIPOS>MOLECULE
tmp/1g9jA04.pdb
 91 91 0 0 0
SMALL
GASTEIGER

@<TRIPOS>ATOM
      1  N         75.3160   99.9670   53.4720 N.3    43  VAL43      -0.1231
      2  CA        74.1100   99.1800   53.2760 C.3    43  VAL43       0.1692
      3  C         74.1010   98.6710   51.8330 C.2    43  VAL43       0.2592
      4  O         74.0580   99.4580   50.8940 O.2    43  VAL43      -0.2718
      5  CB        72.8290  100.0100   53.5190 C.3    43  VAL43       0.0266
      6  CG1       71.6010   99.1240   53.3430 C.3    43  VAL43       0.0020
      7  CG2       72.8470  100.6070   54.9180 C.3    43  VAL43       0.0020
      8  N         74.1710   97.3520   51.6780 N.am   44  GLN44      -0.1966
      9  CA        74.1810   96.7030   50.3680 C.3    44  GLN44       0.1733
     10  C         73.4170   95.3960   50.5720 C.2    44  GLN44       0.2616
     11  O         72.1880   95.3820   50.5570 O.2    44  GLN44      -0.2715
     12  CB        75.6260   96.4140   49.9450 C.3    44  GLN44       0.0408
     13  CG        75.8560   96.2050   48.4510 C.3    44  GLN44       0.0908
     14  CD        76.1460   97.5020   47.7080 C.2    44  GLN44       0.2608
     15  OE1       76.8570   98.3750   48.2090 O.2    44  GLN44      -0.2717
     16  NE2       75.6130   97.6240   46.4980 N.am   44  GLN44      -0.0878
     17  N         74.1480   94.3010   50.7670 N.am   45  ALA45      -0.1977
     18  CA        73.5320   93.0010   51.0260 C.3    45  ALA45       0.1597
     19  C         73.3700   93.0400   52.5560 C.2    45  ALA45       0.2287
     20  O         72.3010   92.7440   53.0850 O.2    45  ALA45      -0.2864
     21  CB        74.4450   91.8570   50.5920 C.3    45  ALA45       0.0319
     22  N         67.0670   94.8490   51.6560 N.3   188  THR188     -0.1203
     23  CA        67.9440   95.0360   52.8010 C.3   188  THR188      0.1994
     24  C         67.3690   96.1140   53.7250 C.2   188  THR188      0.2617
     25  O         67.5830   96.0910   54.9360 O.2   188  THR188     -0.2717
     26  CB        69.3390   95.4820   52.3260 C.3   188  THR188      0.1784
     27  OG1       69.8320   94.5410   51.3560 O.3   188  THR188     -0.2211
     28  CG2       70.2970   95.5620   53.4930 C.3   188  THR188      0.0376
     29  N         66.6250   97.0490   53.1440 N.am  189  TRP189     -0.1975
     30  CA        66.0420   98.1550   53.9050 C.3   189  TRP189      0.1640
     31  C         64.7510   97.8310   54.6610 C.2   189  TRP189      0.2290
     32  O         64.3110   98.6230   55.4960 O.2   189  TRP189     -0.2864
     33  CB        65.7560   99.3370   52.9680 C.3   189  TRP189      0.0576
     34  CG        66.9220   99.7670   52.1450 C.ar  189  TRP189      0.0006
     35  CD1       67.2430   99.3460   50.8850 C.ar  189  TRP189      0.0946
     36  CD2       67.9420  100.6890   52.5330 C.ar  189  TRP189      0.0152
     37  NE1       68.4030   99.9550   50.4630 N.ar  189  TRP189     -0.2442
     38  CE2       68.8520  100.7850   51.4570 C.ar  189  TRP189      0.0810
     39  CE3       68.1750  101.4470   53.6890 C.ar  189  TRP189      0.0012
     40  CZ2       69.9800  101.6080   51.5020 C.ar  189  TRP189      0.0191
     41  CZ3       69.2990  102.2690   53.7340 C.ar  189  TRP189      0.0001
     42  CH2       70.1860  102.3410   52.6450 C.ar  189  TRP189      0.0015
     43  N         64.7920   87.4270   44.4580 N.3   403  TYR403     -0.1241
     44  CA        64.4100   88.7490   44.9470 C.3   403  TYR403      0.1605
     45  C         64.1860   89.7720   43.8410 C.2   403  TYR403      0.2264
     46  O         64.7560   89.6640   42.7570 O.2   403  TYR403     -0.2867
     47  CB        65.4400   89.2460   45.9730 C.3   403  TYR403      0.0534
     48  CG        66.8310   89.4990   45.4420 C.ar  403  TYR403     -0.0201
     49  CD1       67.1780   90.7380   44.9070 C.ar  403  TYR403     -0.0009
     50  CD2       67.8190   88.5130   45.5200 C.ar  403  TYR403     -0.0009
     51  CE1       68.4730   90.9990   44.4700 C.ar  403  TYR403      0.0417
     52  CE2       69.1200   88.7620   45.0830 C.ar  403  TYR403      0.0417
     53  CZ        69.4410   90.0100   44.5610 C.ar  403  TYR403      0.1957
     54  OH        70.7250   90.2660   44.1410 O.3   403  TYR403     -0.2866
     55  N         63.7710   93.4750   44.7020 N.3   405  ASP405     -0.1225
     56  CA        63.9820   94.8480   45.1680 C.3   405  ASP405      0.1790
     57  C         65.4590   95.0930   45.5110 C.2   405  ASP405      0.2439
     58  O         65.8460   95.0290   46.6770 O.2   405  ASP405     -0.2733
     59  CB        63.1070   95.0990   46.4050 C.3   405  ASP405      0.1423
     60  CG        63.0670   96.5620   46.8320 C.2   405  ASP405      0.3668
     61  OD1       63.8280   97.3870   46.2890 O.co2 405  ASP405     -0.2456
     62  OD2       62.2650   96.8830   47.7370 O.co2 405  ASP405     -0.2456
     63  N         66.3070   95.3490   44.4980 N.am  406  PRO406     -0.2729
     64  CA        65.9930   95.4210   43.0670 C.3   406  PRO406      0.1401
     65  C         66.0970   94.0270   42.4440 C.2   406  PRO406      0.2269
     66  O         66.3670   93.0550   43.1480 O.2   406  PRO406     -0.2865
     67  CB        67.0590   96.3720   42.5400 C.3   406  PRO406      0.0296
     68  CG        68.2510   95.9650   43.3440 C.3   406  PRO406      0.0237
     69  CD        67.6910   95.7960   44.7460 C.3   406  PRO406      0.0939
     70  N         72.0880   93.4580   37.9470 N.3   411  TRP411     -0.1241
     71  CA        73.4450   93.8800   38.2610 C.3   411  TRP411      0.1605
     72  C         74.4560   93.0540   37.4710 C.2   411  TRP411      0.2264
     73  O         74.4010   91.8260   37.4730 O.2   411  TRP411     -0.2867
     74  CB        73.7000   93.7100   39.7610 C.3   411  TRP411      0.0550
     75  CG        75.0740   94.1080   40.2100 C.ar  411  TRP411      0.0003
     76  CD1       75.6950   95.3010   39.9870 C.ar  411  TRP411      0.0946
     77  CD2       75.9740   93.3290   41.0070 C.ar  411  TRP411      0.0152
     78  NE1       76.9250   95.3170   40.5990 N.ar  411  TRP411     -0.2442
     79  CE2       77.1220   94.1190   41.2330 C.ar  411  TRP411      0.0810
     80  CE3       75.9210   92.0400   41.5550 C.ar  411  TRP411      0.0012
     81  CZ2       78.2100   93.6640   41.9860 C.ar  411  TRP411      0.0191
     82  CZ3       77.0040   91.5850   42.3040 C.ar  411  TRP411      0.0001
     83  CH2       78.1340   92.3980   42.5120 C.ar  411  TRP411      0.0015
     84  N         70.3370  104.7050   46.8340 N.3   546  ASP546     -0.1239
     85  CA        69.2690  104.1570   47.6640 C.3   546  ASP546      0.1674
     86  C         69.3260  104.6160   49.1140 C.2   546  ASP546      0.2266
     87  O         68.4620  104.2610   49.9080 O.2   546  ASP546     -0.2867
     88  CB        69.2950  102.6260   47.6350 C.3   546  ASP546      0.1410
     89  CG        69.0330  102.0600   46.2490 C.2   546  ASP546      0.3668
     90  OD1       68.1200  102.5650   45.5580 O.co2 546  ASP546     -0.2456
     91  OD2       69.7340  101.1000   45.8550 O.co2 546  ASP546     -0.2456
@<TRIPOS>BOND
     1    72    73    2
     2    72    71    1
     3    70    71    1
     4    71    74    1
     5    74    75    1
     6    76    75   ar
     7    76    78   ar
     8    75    77   ar
     9    78    79   ar
    10    77    79   ar
    11    77    80   ar
    12    79    81   ar
    13    80    82   ar
    14    81    83   ar
    15    82    83   ar
    16    65    64    1
    17    65    66    2
    18    67    64    1
    19    67    68    1
    20    46    45    2
    21    64    63    1
    22    68    69    1
    23    45    44    1
    24    54    53    1
    25    43    44    1
    26    51    53   ar
    27    51    49   ar
    28    63    69    1
    29    63    57   am
    30    53    52   ar
    31    55    56    1
    32    49    48   ar
    33    44    47    1
    34    52    50   ar
    35    56    57    1
    36    56    59    1
    37    48    50   ar
    38    48    47    1
    39    57    58    2
    40    90    89   ar
    41    91    89   ar
    42    89    88    1
    43    61    60   ar
    44    59    60    1
    45    16    14   am
    46    60    62   ar
    47    84    85    1
    48    88    85    1
    49    85    86    1
    50    14    15    2
    51    14    13    1
    52    13    12    1
    53    86    87    2
    54    12     9    1
    55     9    10    1
    56     9     8    1
    57    37    35   ar
    58    37    38   ar
    59    11    10    2
    60    10    17   am
    61    21    18    1
    62    17    18    1
    63    35    34   ar
    64     4     3    2
    65    18    19    1
    66    27    26    1
    67    38    40   ar
    68    38    36   ar
    69    40    42   ar
    70    22    23    1
    71     8     3   am
    72     3     2    1
    73    34    36   ar
    74    34    33    1
    75    26    23    1
    76    26    28    1
    77    36    39   ar
    78    19    20    2
    79    42    41   ar
    80    23    24    1
    81    33    30    1
    82    29    24   am
    83    29    30    1
    84     2     1    1
    85     2     5    1
    86     6     5    1
    87     5     7    1
    88    39    41   ar
    89    24    25    2
    90    30    31    1
    91    31    32    2
