@<TRIPOS>MOLECULE
tmp/1g9qA00.pdb
 173 159 0 0 0
SMALL
GASTEIGER

@<TRIPOS>ATOM
      1  N         53.3640   18.8480   -3.2980 N.3    28  PHE28      -0.1227
      2  CA        53.2590   17.6540   -2.4470 C.3    28  PHE28       0.1736
      3  C         52.2070   17.9750   -1.4020 C.2    28  PHE28       0.2595
      4  O         51.6010   17.0840   -0.8240 O.2    28  PHE28      -0.2718
      5  CB        54.6040   17.2400   -1.8000 C.3    28  PHE28       0.0547
      6  CG        55.4040   18.3850   -1.2400 C.ar   28  PHE28      -0.0202
      7  CD1       55.0260   19.0160   -0.0570 C.ar   28  PHE28      -0.0042
      8  CD2       56.5440   18.8440   -1.9080 C.ar   28  PHE28      -0.0042
      9  CE1       55.7660   20.0890    0.4430 C.ar   28  PHE28      -0.0003
     10  CE2       57.2970   19.9270   -1.4110 C.ar   28  PHE28      -0.0003
     11  CZ        56.9070   20.5440   -0.2410 C.ar   28  PHE28      -0.0000
     12  N         52.0090   19.2730   -1.1750 N.am   29  PHE29      -0.1976
     13  CA        50.9810   19.7880   -0.2730 C.3    29  PHE29       0.1639
     14  C         50.0950   20.5520   -1.2420 C.2    29  PHE29       0.2290
     15  O         50.5930   21.2730   -2.1170 O.2    29  PHE29      -0.2864
     16  CB        51.5550   20.7550    0.7660 C.3    29  PHE29       0.0560
     17  CG        52.2190   20.0780    1.9350 C.ar   29  PHE29      -0.0200
     18  CD1       52.7900   20.8360    2.9530 C.ar   29  PHE29      -0.0042
     19  CD2       52.2780   18.6880    2.0190 C.ar   29  PHE29      -0.0042
     20  CE1       53.4120   20.2210    4.0310 C.ar   29  PHE29      -0.0003
     21  CE2       52.8980   18.0660    3.0910 C.ar   29  PHE29      -0.0003
     22  CZ        53.4660   18.8320    4.1000 C.ar   29  PHE29      -0.0000
     23  N         43.4480   23.3170    2.9870 N.3    54  PHE54      -0.1241
     24  CA        44.8380   22.9180    2.9230 C.3    54  PHE54       0.1605
     25  C         44.9270   21.3920    3.1270 C.2    54  PHE54       0.2264
     26  O         44.5930   20.8670    4.1940 O.2    54  PHE54      -0.2867
     27  CB        45.6260   23.6880    3.9970 C.3    54  PHE54       0.0534
     28  CG        47.1190   23.4810    3.9420 C.ar   54  PHE54      -0.0203
     29  CD1       47.8170   23.6060    2.7410 C.ar   54  PHE54      -0.0042
     30  CD2       47.8370   23.1980    5.1070 C.ar   54  PHE54      -0.0042
     31  CE1       49.2210   23.4490    2.7040 C.ar   54  PHE54      -0.0003
     32  CE2       49.2330   23.0410    5.0850 C.ar   54  PHE54      -0.0003
     33  CZ        49.9270   23.1660    3.8840 C.ar   54  PHE54      -0.0000
     34  N         47.3290   18.3790    3.3640 N.3    56  ARG56      -0.1245
     35  CA        48.7200   18.1700    3.7130 C.3    56  ARG56       0.1563
     36  C         48.9620   16.7970    4.3500 C.2    56  ARG56       0.2260
     37  O         50.0110   16.5420    4.9460 O.2    56  ARG56      -0.2867
     38  CB        49.0770   19.2870    4.6880 C.3    56  ARG56       0.0307
     39  CG        50.2790   19.0520    5.5320 C.3    56  ARG56       0.0489
     40  CD        50.0100   19.4040    6.9560 C.3    56  ARG56       0.2205
     41  NE        51.2680   19.7810    7.5830 N.pl3  56  ARG56      -0.0865
     42  CZ        52.3360   18.9990    7.6440 C.cat  56  ARG56       0.5346
     43  NH1       52.3070   17.7800    7.1260 N.pl3  56  ARG56       0.1354
     44  NH2       53.4470   19.4560    8.1940 N.pl3  56  ARG56       0.1354
     45  N         49.2720   13.4280   10.5220 N.3    59  ALA59      -0.1245
     46  CA        50.4390   13.0460   11.3060 C.3    59  ALA59       0.1562
     47  C         50.2020   12.1060   12.4720 C.2    59  ALA59       0.2260
     48  O         49.0870   11.9270   12.9330 O.2    59  ALA59      -0.2867
     49  CB        51.1450   14.3040   11.8080 C.3    59  ALA59       0.0290
     50  N         51.7190   11.3750   16.3580 N.3    61  VAL61      -0.1245
     51  CA        52.4410   12.0760   17.4230 C.3    61  VAL61       0.1561
     52  C         52.7380   11.1610   18.6200 C.2    61  VAL61       0.2260
     53  O         51.8640   10.4100   19.0710 O.2    61  VAL61      -0.2867
     54  CB        51.6210   13.2990   17.9260 C.3    61  VAL61       0.0252
     55  CG1       52.3670   14.0080   19.0710 C.3    61  VAL61       0.0019
     56  CG2       51.3650   14.2620   16.7690 C.3    61  VAL61       0.0019
     57  N         63.5040   21.6730   17.0070 N.3    77  GLN77      -0.1245
     58  CA        63.5950   21.6990   15.5530 C.3    77  GLN77       0.1566
     59  C         63.0620   23.0340   15.0200 C.2    77  GLN77       0.2260
     60  O         62.1900   23.6480   15.6380 O.2    77  GLN77      -0.2867
     61  CB        62.7330   20.5510   15.0580 C.3    77  GLN77       0.0367
     62  CG        62.7280   20.2540   13.6140 C.3    77  GLN77       0.0905
     63  CD        61.8040   19.0890   13.3220 C.2    77  GLN77       0.2608
     64  OE1       61.8240   18.5290   12.2290 O.2    77  GLN77      -0.2717
     65  NE2       60.9810   18.7140   14.3070 N.am   77  GLN77      -0.0878
     66  N         60.8640   25.4820   12.7690 N.3    79  ARG79      -0.1245
     67  CA        59.5570   25.5100   12.1250 C.3    79  ARG79       0.1563
     68  C         59.4190   26.9300   11.5870 C.2    79  ARG79       0.2260
     69  O         58.9600   27.8210   12.2990 O.2    79  ARG79      -0.2867
     70  CB        58.4540   25.2520   13.1520 C.3    79  ARG79       0.0307
     71  CG        58.4840   23.8760   13.7860 C.3    79  ARG79       0.0489
     72  CD        58.2580   22.7930   12.7400 C.3    79  ARG79       0.2205
     73  NE        57.9600   21.5020   13.3460 N.pl3  79  ARG79      -0.0865
     74  CZ        57.7790   20.3730   12.6640 C.cat  79  ARG79       0.5346
     75  NH1       57.8670   20.3610   11.3390 N.pl3  79  ARG79       0.1354
     76  NH2       57.5080   19.2480   13.3130 N.pl3  79  ARG79       0.1354
     77  N         59.1880   20.2830   20.5300 N.3    93  GLU93      -0.1245
     78  CA        58.0350   19.4860   20.1560 C.3    93  GLU93       0.1567
     79  C         58.0430   18.0230   20.5820 C.2    93  GLU93       0.2260
     80  O         58.9640   17.5210   21.2520 O.2    93  GLU93      -0.2867
     81  CB        57.8560   19.5410   18.6340 C.3    93  GLU93       0.0388
     82  CG        57.7570   20.9380   18.0590 C.3    93  GLU93       0.1160
     83  CD        57.5700   20.9540   16.5440 C.2    93  GLU93       0.3649
     84  OE1       58.3920   20.3340   15.8260 O.co2  93  GLU93      -0.2457
     85  OE2       56.5980   21.5910   16.0730 O.co2  93  GLU93      -0.2457
     86  N         57.0400   13.2750   16.0970 N.3    96  ALA96      -0.1231
     87  CA        55.9260   13.2570   15.1560 C.3    96  ALA96       0.1694
     88  C         56.3970   12.9560   13.7370 C.2    96  ALA96       0.2593
     89  O         57.5510   13.2010   13.3900 O.2    96  ALA96      -0.2718
     90  CB        55.1930   14.6070   15.1920 C.3    96  ALA96       0.0304
     91  N         55.4930   12.4340   12.9160 N.am   97  GLY97      -0.1942
     92  CA        55.8320   12.1090   11.5440 C.3    97  GLY97       0.2014
     93  C         54.5760   11.9000   10.7240 C.2    97  GLY97       0.2638
     94  O         53.5070   11.6400   11.2670 O.2    97  GLY97      -0.2714
     95  N         54.6960   11.9980    9.4100 N.am   98  MET98      -0.1976
     96  CA        53.5420   11.8350    8.5440 C.3    98  MET98       0.1605
     97  C         53.1560   10.3860    8.4530 C.2    98  MET98       0.2287
     98  O         54.0240    9.5110    8.4070 O.2    98  MET98      -0.2864
     99  CB        53.8390   12.3600    7.1390 C.3    98  MET98       0.0413
    100  CG        52.6310   12.3650    6.2210 C.3    98  MET98       0.0598
    101  SD        53.0040   13.0140    4.5870 S.3    98  MET98      -0.1393
    102  CE        53.4080   11.4570    3.6890 C.3    98  MET98       0.0692
    103  N         59.5300    6.9340   14.2630 N.3   112  GLU112     -0.1245
    104  CA        59.9620    8.3150   14.4610 C.3   112  GLU112      0.1567
    105  C         60.7170    8.5310   15.7620 C.2   112  GLU112      0.2260
    106  O         61.5790    9.4030   15.8340 O.2   112  GLU112     -0.2867
    107  CB        58.7600    9.2660   14.4100 C.3   112  GLU112      0.0388
    108  CG        58.1710    9.4630   13.0070 C.3   112  GLU112      0.1160
    109  CD        59.1630   10.0800   12.0300 C.2   112  GLU112      0.3649
    110  OE1       60.1330   10.7230   12.4780 O.co2 112  GLU112     -0.2457
    111  OE2       58.9690    9.9400   10.8110 O.co2 112  GLU112     -0.2457
    112  N         64.3430   10.2180   15.2690 N.3   116  GLU116     -0.1245
    113  CA        64.3320   11.6260   15.6590 C.3   116  GLU116      0.1567
    114  C         65.0120   11.8350   16.9990 C.2   116  GLU116      0.2260
    115  O         65.7610   12.8000   17.1720 O.2   116  GLU116     -0.2867
    116  CB        62.9110   12.1810   15.7490 C.3   116  GLU116      0.0388
    117  CG        62.1820   12.2840   14.4330 C.3   116  GLU116      0.1160
    118  CD        60.9050   13.0950   14.5620 C.2   116  GLU116      0.3649
    119  OE1       60.1210   12.8420   15.5080 O.co2 116  GLU116     -0.2457
    120  OE2       60.6810   13.9850   13.7180 O.co2 116  GLU116     -0.2457
    121  N         43.2800   14.6770   17.1440 N.3   130  PHE130     -0.1241
    122  CA        42.6360   15.9740   16.9720 C.3   130  PHE130      0.1605
    123  C         42.8140   16.6380   15.6020 C.2   130  PHE130      0.2264
    124  O         43.7520   16.3400   14.8600 O.2   130  PHE130     -0.2867
    125  CB        43.1500   16.9160   18.0640 C.3   130  PHE130      0.0534
    126  CG        44.6000   17.2950   17.9040 C.ar  130  PHE130     -0.0203
    127  CD1       44.9570   18.4900   17.2830 C.ar  130  PHE130     -0.0042
    128  CD2       45.6110   16.4460   18.3560 C.ar  130  PHE130     -0.0042
    129  CE1       46.3050   18.8440   17.1150 C.ar  130  PHE130     -0.0003
    130  CE2       46.9580   16.7830   18.1980 C.ar  130  PHE130     -0.0003
    131  CZ        47.3060   17.9890   17.5740 C.ar  130  PHE130     -0.0000
    132  N         43.8180   19.8590   13.7250 N.3   132  ALA132     -0.1245
    133  CA        44.6150   21.0580   13.9740 C.3   132  ALA132      0.1562
    134  C         43.8720   22.3830   13.8860 C.2   132  ALA132      0.2260
    135  O         44.0130   23.2250   14.7760 O.2   132  ALA132     -0.2867
    136  CB        45.8250   21.0870   13.0310 C.3   132  ALA132      0.0290
    137  N         43.9780   18.4110    8.0610 N.3   139  GLU139     -0.1245
    138  CA        44.9510   17.7050    8.8830 C.3   139  GLU139      0.1567
    139  C         44.4950   17.1640   10.2230 C.2   139  GLU139      0.2260
    140  O         43.9890   17.8870   11.0790 O.2   139  GLU139     -0.2867
    141  CB        46.2040   18.5430    9.1080 C.3   139  GLU139      0.0388
    142  CG        47.2470   17.7340    9.8880 C.3   139  GLU139      0.1160
    143  CD        48.4810   18.5180   10.2620 C.2   139  GLU139      0.3649
    144  OE1       48.3360   19.6520   10.7310 O.co2 139  GLU139     -0.2457
    145  OE2       49.6020   17.9920   10.1010 O.co2 139  GLU139     -0.2457
    146  N         45.8320   14.7830   13.5510 N.3   141  SER141     -0.1217
    147  CA        47.0000   14.2820   14.2790 C.3   141  SER141      0.1889
    148  C         46.5820   13.3630   15.4140 C.2   141  SER141      0.2288
    149  O         45.7620   13.7380   16.2450 O.2   141  SER141     -0.2866
    150  CB        47.8100   15.4330   14.8780 C.3   141  SER141      0.2089
    151  OG        48.3180   16.2920   13.8810 O.3   141  SER141     -0.2183
    152  N         68.9040   12.1170   12.9100 N.3   158  GLU158     -0.1245
    153  CA        68.7310   13.4890   12.4380 C.3   158  GLU158      0.1567
    154  C         69.1780   14.4800   13.5040 C.2   158  GLU158      0.2260
    155  O         68.5360   15.5120   13.7010 O.2   158  GLU158     -0.2867
    156  CB        67.2660   13.7720   12.1040 C.3   158  GLU158      0.0388
    157  CG        66.5370   12.6360   11.4400 C.3   158  GLU158      0.1160
    158  CD        65.1170   13.0090   11.0810 C.2   158  GLU158      0.3649
    159  OE1       64.3440   12.1000   10.7140 O.co2 158  GLU158     -0.2457
    160  OE2       64.7770   14.2120   11.1590 O.co2 158  GLU158     -0.2457
    161  N         69.4370   18.2130   12.4860 N.3   161  ASP161     -0.1239
    162  CA        68.2020   18.9760   12.2780 C.3   161  ASP161      0.1674
    163  C         67.3150   18.9530   13.5370 C.2   161  ASP161      0.2266
    164  O         66.4710   19.8370   13.7320 O.2   161  ASP161     -0.2867
    165  CB        67.3980   18.3970   11.1020 C.3   161  ASP161      0.1410
    166  CG        68.1330   18.4960    9.7770 C.2   161  ASP161      0.3668
    167  OD1       68.4910   19.6190    9.3610 O.co2 161  ASP161     -0.2456
    168  OD2       68.3490   17.4420    9.1440 O.co2 161  ASP161     -0.2456
    169  N         50.1510   20.0240   19.2510 N.3   185  ALA185     -0.1245
    170  CA        50.3680   18.6350   19.6580 C.3   185  ALA185      0.1562
    171  C         51.0660   18.5130   21.0090 C.2   185  ALA185      0.2260
    172  O         50.7420   17.6310   21.8070 O.2   185  ALA185     -0.2867
    173  CB        51.1640   17.8930   18.5810 C.3   185  ALA185      0.0290
@<TRIPOS>BOND
     1     1     2    1
     2     2     5    1
     3     2     3    1
     4    15    14    2
     5     8    10   ar
     6     8     6   ar
     7     5     6    1
     8    10    11   ar
     9     3    12   am
    10     3     4    2
    11    14    13    1
    12     6     7   ar
    13    12    13    1
    14    13    16    1
    15    11     9   ar
    16     7     9   ar
    17    16    17    1
    18    17    19   ar
    19    17    18   ar
    20    19    21   ar
    21    31    29   ar
    22    31    33   ar
    23    29    28   ar
    24    24    23    1
    25    24    25    1
    26    24    27    1
    27    18    20   ar
    28    21    22   ar
    29    25    26    2
    30    34    35    1
    31   102   101    1
    32    35    36    1
    33    35    38    1
    34    33    32   ar
    35    28    27    1
    36    28    30   ar
    37    20    22   ar
    38    36    37    2
    39   101   100    1
    40    38    39    1
    41    32    30   ar
    42    39    40    1
    43   100    99    1
    44    40    41    1
    45    43    42    1
    46    99    96    1
    47    41    42    2
    48    42    44    1
    49   137   138    1
    50    98    97    2
    51    97    96    1
    52    96    95    1
    53   138   141    1
    54   138   139    1
    55   141   142    1
    56   168   166   ar
    57   167   166   ar
    58    95    93   am
    59   166   165    1
    60   142   143    1
    61   145   143   ar
    62   139   140    2
    63   143   144   ar
    64    45    46    1
    65   159   158   ar
    66    93    94    2
    67    93    92    1
    68   111   109   ar
    69   158   160   ar
    70   158   157    1
    71   165   162    1
    72    46    49    1
    73    46    47    1
    74    75    74    1
    75   157   156    1
    76    92    91    1
    77    68    67    1
    78    68    69    2
    79   109   110   ar
    80   109   108    1
    81   156   153    1
    82    67    66    1
    83    67    70    1
    84    64    63    2
    85   162   161    1
    86   162   163    1
    87   153   152    1
    88   153   154    1
    89    47    48    2
    90    74    76    1
    91    74    73    2
    92    72    73    1
    93    72    71    1
    94    91    88   am
    95   108   107    1
    96   136   133    1
    97    70    71    1
    98    63    62    1
    99    63    65   am
   100    89    88    2
   101   154   155    2
   102   163   164    2
   103   146   147    1
   104    62    61    1
   105   120   118   ar
   106   132   133    1
   107    88    87    1
   108   151   150    1
   109   134   133    1
   110   134   135    2
   111   103   104    1
   112   147   150    1
   113   147   148    1
   114   107   104    1
   115   117   118    1
   116   117   116    1
   117   104   105    1
   118   118   119   ar
   119   124   123    2
   120    59    58    1
   121    59    60    2
   122    61    58    1
   123    87    90    1
   124    87    86    1
   125   112   113    1
   126   148   149    2
   127    58    57    1
   128   123   122    1
   129   113   116    1
   130   113   114    1
   131   105   106    2
   132    84    83   ar
   133    85    83   ar
   134    50    51    1
   135    83    82    1
   136    56    54    1
   137   122   121    1
   138   122   125    1
   139   114   115    2
   140   129   127   ar
   141   129   131   ar
   142   127   126   ar
   143    51    54    1
   144    51    52    1
   145   131   130   ar
   146   126   125    1
   147   126   128   ar
   148    54    55    1
   149    82    81    1
   150   130   128   ar
   151   173   170    1
   152    52    53    2
   153    81    78    1
   154   169   170    1
   155   170   171    1
   156    78    77    1
   157    78    79    1
   158    79    80    2
   159   171   172    2
