@<TRIPOS>MOLECULE
tmp/1g9sA00.pdb
 138 132 0 0 0
SMALL
GASTEIGER

@<TRIPOS>ATOM
      1  N         -8.4510   70.8730   70.4600 N.3    44  GLY44      -0.1225
      2  CA        -8.8810   70.4590   71.7840 C.3    44  GLY44       0.1811
      3  C         -7.9190   69.9990   72.8620 C.2    44  GLY44       0.2280
      4  O         -8.2590   70.0910   74.0380 O.2    44  GLY44      -0.2866
      5  N        -12.0510   64.6080   60.8510 N.3    69  SER69      -0.1217
      6  CA       -12.6770   63.5180   61.6010 C.3    69  SER69       0.1889
      7  C        -14.0120   63.0450   61.0410 C.2    69  SER69       0.2288
      8  O        -14.3610   61.8710   61.1780 O.2    69  SER69      -0.2866
      9  CB       -12.8420   63.9240   63.0760 C.3    69  SER69       0.2089
     10  OG       -13.3540   65.2410   63.2160 O.3    69  SER69      -0.2183
     11  N         -4.4750   63.1920   73.5900 N.3    91  GLU91      -0.1231
     12  CA        -5.8130   63.5850   73.1570 C.3    91  GLU91       0.1699
     13  C         -6.6450   64.1090   74.3150 C.2    91  GLU91       0.2592
     14  O         -6.4020   63.7660   75.4640 O.2    91  GLU91      -0.2718
     15  CB        -6.5200   62.3870   72.5220 C.3    91  GLU91       0.0402
     16  CG        -7.9960   62.5980   72.1750 C.3    91  GLU91       0.1161
     17  CD        -8.2240   63.5520   71.0040 C.2    91  GLU91       0.3649
     18  OE1       -9.3050   63.4640   70.3790 O.co2  91  GLU91      -0.2457
     19  OE2       -7.3380   64.3890   70.7130 O.co2  91  GLU91      -0.2457
     20  N         -7.6280   64.9420   74.0070 N.am   92  ASP92      -0.1960
     21  CA        -8.4980   65.5030   75.0360 C.3    92  ASP92       0.1840
     22  C         -9.6830   64.5840   75.3250 C.2    92  ASP92       0.2622
     23  O        -10.0590   64.3760   76.4790 O.2    92  ASP92      -0.2715
     24  CB        -8.9960   66.8950   74.6140 C.3    92  ASP92       0.1450
     25  CG        -9.7700   66.8790   73.3040 C.2    92  ASP92       0.3671
     26  OD1       -9.4660   66.0480   72.4220 O.co2  92  ASP92      -0.2456
     27  OD2      -10.6760   67.7210   73.1400 O.co2  92  ASP92      -0.2456
     28  N        -10.2620   64.0160   74.2770 N.am   93  ILE93      -0.1963
     29  CA       -11.4010   63.1390   74.4630 C.3    93  ILE93       0.1727
     30  C        -11.5110   62.0700   73.3890 C.2    93  ILE93       0.2616
     31  O        -11.2340   62.3130   72.2130 O.2    93  ILE93      -0.2715
     32  CB       -12.7150   63.9670   74.5060 C.3    93  ILE93       0.0290
     33  CG1      -13.9390   63.0500   74.4080 C.3    93  ILE93       0.0022
     34  CG2      -12.7150   64.9850   73.3820 C.3    93  ILE93       0.0023
     35  CD1      -14.0760   62.0770   75.5600 C.3    93  ILE93       0.0001
     36  N        -11.8970   60.8740   73.8180 N.am   94  ILE94      -0.1963
     37  CA       -12.1010   59.7480   72.9200 C.3    94  ILE94       0.1727
     38  C        -13.4970   59.2090   73.2050 C.2    94  ILE94       0.2616
     39  O        -13.8350   58.9170   74.3580 O.2    94  ILE94      -0.2715
     40  CB       -11.0880   58.6070   73.1690 C.3    94  ILE94       0.0290
     41  CG1       -9.6770   59.0810   72.8250 C.3    94  ILE94       0.0022
     42  CG2      -11.4500   57.3930   72.3230 C.3    94  ILE94       0.0023
     43  CD1       -8.5970   58.0170   73.0140 C.3    94  ILE94       0.0001
     44  N        -14.3190   59.1010   72.1680 N.am   95  ASP95      -0.1957
     45  CA       -15.6590   58.5610   72.3460 C.3    95  ASP95       0.1840
     46  C        -15.9140   57.4560   71.3340 C.2    95  ASP95       0.2623
     47  O        -15.9700   56.2870   71.7050 O.2    95  ASP95      -0.2715
     48  CB       -16.7090   59.6650   72.2450 C.3    95  ASP95       0.1450
     49  CG       -16.4870   60.5770   71.0700 C.2    95  ASP95       0.3671
     50  OD1      -17.0630   61.6810   71.0930 O.co2  95  ASP95      -0.2456
     51  OD2      -15.7570   60.2000   70.1280 O.co2  95  ASP95      -0.2456
     52  N        -16.0460   57.8090   70.0620 N.am   96  SER96      -0.1936
     53  CA       -16.2700   56.8010   69.0340 C.3    96  SER96       0.2055
     54  C        -14.9810   56.0370   68.7660 C.2    96  SER96       0.2644
     55  O        -14.9990   54.8230   68.5590 O.2    96  SER96      -0.2714
     56  CB       -16.7560   57.4570   67.7450 C.3    96  SER96       0.2130
     57  OG       -15.9470   58.5680   67.4170 O.3    96  SER96      -0.2179
     58  N        -13.8620   56.7570   68.7740 N.am   97  GLY97      -0.1939
     59  CA       -12.5720   56.1350   68.5330 C.3    97  GLY97       0.2014
     60  C        -12.1690   56.0950   67.0680 C.2    97  GLY97       0.2639
     61  O        -11.1360   55.5300   66.7200 O.2    97  GLY97      -0.2714
     62  N        -12.9770   56.7010   66.2060 N.am   98  ASN98      -0.1958
     63  CA       -12.6940   56.7180   64.7760 C.3    98  ASN98       0.1819
     64  C        -11.4160   57.4770   64.4430 C.2    98  ASN98       0.2622
     65  O        -10.4520   56.9030   63.9310 O.2    98  ASN98      -0.2715
     66  CB       -13.8680   57.3490   64.0300 C.3    98  ASN98       0.1195
     67  CG       -15.1630   56.5770   64.2190 C.2    98  ASN98       0.2630
     68  OD1      -16.2560   57.1220   64.0350 O.2    98  ASN98      -0.2716
     69  ND2      -15.0490   55.2990   64.5750 N.am   98  ASN98      -0.0877
     70  N        -11.4200   58.7710   64.7450 N.am   99  THR99      -0.1937
     71  CA       -10.2870   59.6430   64.4710 C.3    99  THR99       0.2028
     72  C         -8.9660   59.1610   65.0570 C.2    99  THR99       0.2642
     73  O         -7.9640   59.0710   64.3390 O.2    99  THR99      -0.2714
     74  CB       -10.5730   61.0620   64.9750 C.3    99  THR99       0.1808
     75  OG1      -11.8040   61.5150   64.4050 O.3    99  THR99      -0.2208
     76  CG2       -9.4610   62.0200   64.5630 C.3    99  THR99       0.0379
     77  N         -8.9570   58.8670   66.3550 N.am  100  LEU100     -0.1977
     78  CA        -7.7450   58.3940   67.0130 C.3   100  LEU100      0.1596
     79  C         -7.2460   57.1220   66.3450 C.2   100  LEU100      0.2287
     80  O         -6.0610   56.9930   66.0360 O.2   100  LEU100     -0.2864
     81  CB        -8.0090   58.1310   68.4990 C.3   100  LEU100      0.0297
     82  CG        -7.3990   59.1530   69.4620 C.3   100  LEU100      0.0022
     83  CD1       -5.8860   59.0050   69.4790 C.3   100  LEU100      0.0001
     84  CD2       -7.7920   60.5620   69.0320 C.3   100  LEU100      0.0001
     85  N        -15.3400   58.4060   76.8050 N.3   123  LYS123     -0.1245
     86  CA       -16.7540   58.0520   76.7970 C.3   123  LYS123      0.1561
     87  C        -16.8840   56.6700   76.1740 C.2   123  LYS123      0.2260
     88  O        -17.2730   56.5390   75.0170 O.2   123  LYS123     -0.2867
     89  CB       -17.5730   59.0400   75.9720 C.3   123  LYS123      0.0271
     90  CG       -17.7610   60.3960   76.5890 C.3   123  LYS123      0.0035
     91  CD       -18.5190   61.2860   75.6220 C.3   123  LYS123      0.0206
     92  CE       -18.5980   62.7190   76.1100 C.3   123  LYS123      0.1093
     93  NZ       -19.1430   63.6210   75.0580 N.3   123  LYS123     -0.1314
     94  N        -19.5930   55.4520   74.0040 N.3   126  ARG126     -0.1245
     95  CA       -19.7060   55.9820   72.6610 C.3   126  ARG126      0.1563
     96  C        -18.8080   55.2670   71.6550 C.2   126  ARG126      0.2260
     97  O        -18.8770   55.5300   70.4510 O.2   126  ARG126     -0.2867
     98  CB       -19.3790   57.4690   72.6790 C.3   126  ARG126      0.0307
     99  CG       -20.0430   58.2330   71.5610 C.3   126  ARG126      0.0489
    100  CD       -21.3920   58.7940   71.9840 C.3   126  ARG126      0.2205
    101  NE       -21.2650   60.1690   72.4680 N.pl3 126  ARG126     -0.0865
    102  CZ       -20.7350   61.1680   71.7600 C.cat 126  ARG126      0.5346
    103  NH1      -20.2770   60.9490   70.5300 N.pl3 126  ARG126      0.1354
    104  NH2      -20.6620   62.3900   72.2810 N.pl3 126  ARG126      0.1354
    105  N        -22.1990   66.2500   77.2340 N.3   144  PHE144     -0.1227
    106  CA       -21.5400   67.1220   76.2640 C.3   144  PHE144      0.1736
    107  C        -20.6800   68.0420   77.1050 C.2   144  PHE144      0.2595
    108  O        -21.1450   69.0370   77.6580 O.2   144  PHE144     -0.2718
    109  CB       -22.5330   67.9380   75.4380 C.3   144  PHE144      0.0547
    110  CG       -21.8890   68.6660   74.2910 C.ar  144  PHE144     -0.0202
    111  CD1      -21.3230   69.9260   74.4730 C.ar  144  PHE144     -0.0042
    112  CD2      -21.7980   68.0660   73.0320 C.ar  144  PHE144     -0.0042
    113  CE1      -20.6730   70.5810   73.4180 C.ar  144  PHE144     -0.0003
    114  CE2      -21.1490   68.7110   71.9690 C.ar  144  PHE144     -0.0003
    115  CZ       -20.5850   69.9710   72.1650 C.ar  144  PHE144     -0.0000
    116  N        -19.4150   67.6700   77.2040 N.am  145  VAL145     -0.1980
    117  CA       -18.4530   68.3850   78.0090 C.3   145  VAL145      0.1595
    118  C        -17.7770   69.5290   77.2770 C.2   145  VAL145      0.2287
    119  O        -17.6750   69.5260   76.0500 O.2   145  VAL145     -0.2864
    120  CB       -17.3860   67.4100   78.4940 C.3   145  VAL145      0.0276
    121  CG1      -18.0200   66.3470   79.3740 C.3   145  VAL145      0.0022
    122  CG2      -16.7210   66.7510   77.2960 C.3   145  VAL145      0.0022
    123  N        -11.6020   71.9110   75.4960 N.3   150  ILE150     -0.1231
    124  CA       -12.7740   71.4680   74.7590 C.3   150  ILE150      0.1692
    125  C        -13.7180   72.6430   74.5660 C.2   150  ILE150      0.2592
    126  O        -13.7170   73.5870   75.3540 O.2   150  ILE150     -0.2718
    127  CB       -13.4870   70.3440   75.5130 C.3   150  ILE150      0.0266
    128  CG1      -12.4980   69.2040   75.7720 C.3   150  ILE150      0.0019
    129  CG2      -14.6810   69.8440   74.7070 C.3   150  ILE150      0.0020
    130  CD1      -12.9400   68.2570   76.8580 C.3   150  ILE150      0.0001
    131  N        -14.5390   72.5840   73.5280 N.am  151  ASP151     -0.1974
    132  CA       -15.4360   73.6910   73.2480 C.3   151  ASP151      0.1709
    133  C        -16.8730   73.3010   72.9180 C.2   151  ASP151      0.2293
    134  O        -17.2260   72.1250   72.8170 O.2   151  ASP151     -0.2864
    135  CB       -14.8930   74.4740   72.0630 C.3   151  ASP151      0.1436
    136  CG       -15.1340   73.7520   70.7470 C.2   151  ASP151      0.3671
    137  OD1      -15.8110   74.3270   69.8650 O.co2 151  ASP151     -0.2456
    138  OD2      -14.6610   72.5990   70.6040 O.co2 151  ASP151     -0.2456
@<TRIPOS>BOND
     1     5     6    1
     2     7     8    2
     3     7     6    1
     4     6     9    1
     5     9    10    1
     6    65    64    2
     7    66    67    1
     8    66    63    1
     9    68    67    2
    10    67    69   am
    11    73    72    2
    12    75    74    1
    13    64    70   am
    14    64    63    1
    15    71    70    1
    16    71    74    1
    17    71    72    1
    18    76    74    1
    19    63    62    1
    20    72    77   am
    21    80    79    2
    22    62    60   am
    23    79    78    1
    24    77    78    1
    25    61    60    2
    26    78    81    1
    27    60    59    1
    28    57    56    1
    29    56    53    1
    30    81    82    1
    31    59    58    1
    32    55    54    2
    33    54    58   am
    34    54    53    1
    35    84    82    1
    36    53    52    1
    37    82    83    1
    38   137   136   ar
    39    52    46   am
    40    51    49   ar
    41    18    17   ar
    42    97    96    2
    43     1     2    1
    44   103   102    1
    45   138   136   ar
    46    19    17   ar
    47   136   135    1
    48    17    16    1
    49    49    50   ar
    50    49    48    1
    51    46    47    2
    52    46    45    1
    53    99   100    1
    54    99    98    1
    55    96    95    1
    56   102   104    1
    57   102   101    2
    58     2     3    1
    59   114   115   ar
    60   114   112   ar
    61   100   101    1
    62   135   132    1
    63   115   113   ar
    64    44    45    1
    65    44    38   am
    66    16    15    1
    67    31    30    2
    68    48    45    1
    69    42    40    1
    70    26    25   ar
    71    15    12    1
    72    95    98    1
    73    95    94    1
    74   134   133    2
    75    41    43    1
    76    41    40    1
    77     3     4    2
    78   133   132    1
    79    37    40    1
    80    37    38    1
    81    37    36    1
    82   112   110   ar
    83    27    25   ar
    84    12    11    1
    85    12    13    1
    86    38    39    2
    87   132   131    1
    88    25    24    1
    89    34    32    1
    90    30    36   am
    91    30    29    1
    92   113   111   ar
    93   131   125   am
    94    20    13   am
    95    20    21    1
    96    28    29    1
    97    28    22   am
    98   110   111   ar
    99   110   109    1
   100    13    14    2
   101    33    32    1
   102    33    35    1
   103    29    32    1
   104   125   124    1
   105   125   126    2
   106    24    21    1
   107   129   127    1
   108   124   123    1
   109   124   127    1
   110    88    87    2
   111    21    22    1
   112    93    92    1
   113    22    23    2
   114   109   106    1
   115   127   128    1
   116    91    92    1
   117    91    90    1
   118   128   130    1
   119    89    90    1
   120    89    86    1
   121   119   118    2
   122    87    86    1
   123   106   107    1
   124   106   105    1
   125    86    85    1
   126   107   116   am
   127   107   108    2
   128   116   117    1
   129   118   117    1
   130   122   120    1
   131   117   120    1
   132   120   121    1
