@<TRIPOS>MOLECULE
tmp/1g9tB00.pdb
 100 96 0 0 0
SMALL
GASTEIGER

@<TRIPOS>ATOM
      1  N          1.0260   81.2410   68.6060 N.3    41  LEU41      -0.1231
      2  CA         1.9550   80.8510   67.5550 C.3    41  LEU41       0.1693
      3  C          2.6850   79.5620   67.9290 C.2    41  LEU41       0.2591
      4  O          3.5240   79.5570   68.8230 O.2    41  LEU41      -0.2718
      5  CB         2.9590   81.9810   67.3210 C.3    41  LEU41       0.0284
      6  CG         2.6590   82.9560   66.1800 C.3    41  LEU41       0.0019
      7  CD1        1.1770   83.2750   66.1180 C.3    41  LEU41       0.0001
      8  CD2        3.4850   84.2080   66.3730 C.3    41  LEU41       0.0001
      9  N          2.3620   78.4670   67.2530 N.am   42  LEU42      -0.1980
     10  CA         3.0080   77.1800   67.5310 C.3    42  LEU42       0.1596
     11  C          4.4520   77.1680   67.0300 C.2    42  LEU42       0.2287
     12  O          4.7770   77.9010   66.0990 O.2    42  LEU42      -0.2864
     13  CB         2.2080   76.0580   66.8680 C.3    42  LEU42       0.0297
     14  CG         1.1370   75.3820   67.7250 C.3    42  LEU42       0.0022
     15  CD1        0.6340   76.3100   68.8070 C.3    42  LEU42       0.0001
     16  CD2        0.0170   74.9320   66.8220 C.3    42  LEU42       0.0001
     17  N          6.1970   77.0680   70.1450 N.3    44  GLY44      -0.1225
     18  CA         6.4930   77.8720   71.3240 C.3    44  GLY44       0.1811
     19  C          5.4530   78.3820   72.3120 C.2    44  GLY44       0.2280
     20  O          5.7020   78.3660   73.5200 O.2    44  GLY44      -0.2866
     21  N          9.6390   80.3350   60.8790 N.3    69  SER69      -0.1217
     22  CA        10.4600   81.3390   61.5480 C.3    69  SER69       0.1889
     23  C         11.6990   81.6790   60.7200 C.2    69  SER69       0.2288
     24  O         11.5980   82.3210   59.6700 O.2    69  SER69      -0.2866
     25  CB        10.8770   80.8320   62.9330 C.3    69  SER69       0.2089
     26  OG        11.6110   81.8140   63.6450 O.3    69  SER69      -0.2183
     27  N          2.6350   84.8960   72.0340 N.3    91  GLU91      -0.1231
     28  CA         3.9250   84.2650   71.7610 C.3    91  GLU91       0.1699
     29  C          4.7050   84.0140   73.0440 C.2    91  GLU91       0.2592
     30  O          4.4620   84.6550   74.0620 O.2    91  GLU91      -0.2718
     31  CB         4.7640   85.1390   70.8210 C.3    91  GLU91       0.0402
     32  CG         6.1000   84.5140   70.4420 C.3    91  GLU91       0.1161
     33  CD         5.9400   83.2290   69.6370 C.2    91  GLU91       0.3649
     34  OE1        5.6740   83.3240   68.4180 O.co2  91  GLU91      -0.2457
     35  OE2        6.0670   82.1240   70.2170 O.co2  91  GLU91      -0.2457
     36  N          5.6420   83.0730   72.9890 N.am   92  ASP92      -0.1960
     37  CA         6.4520   82.7410   74.1490 C.3    92  ASP92       0.1840
     38  C          7.5700   83.7690   74.3380 C.2    92  ASP92       0.2622
     39  O          7.8920   84.1600   75.4650 O.2    92  ASP92      -0.2715
     40  CB         7.0300   81.3190   74.0110 C.3    92  ASP92       0.1450
     41  CG         7.9770   81.1670   72.8190 C.2    92  ASP92       0.3671
     42  OD1        7.8850   81.9750   71.8690 O.co2  92  ASP92      -0.2456
     43  OD2        8.8060   80.2240   72.8240 O.co2  92  ASP92      -0.2456
     44  N          8.1530   84.2240   73.2380 N.am   93  ILE93      -0.1963
     45  CA         9.2200   85.1990   73.3350 C.3    93  ILE93       0.1727
     46  C          9.3910   85.9820   72.0560 C.2    93  ILE93       0.2616
     47  O          9.1780   85.4660   70.9550 O.2    93  ILE93      -0.2715
     48  CB        10.5840   84.5370   73.6670 C.3    93  ILE93       0.0290
     49  CG1       11.6780   85.6060   73.7060 C.3    93  ILE93       0.0022
     50  CG2       10.9320   83.4790   72.6200 C.3    93  ILE93       0.0023
     51  CD1       13.0220   85.0850   74.1150 C.3    93  ILE93       0.0001
     52  N          9.7720   87.2420   72.2150 N.am   94  ILE94      -0.1963
     53  CA        10.0160   88.1000   71.0770 C.3    94  ILE94       0.1727
     54  C         11.4440   88.6240   71.1870 C.2    94  ILE94       0.2616
     55  O         11.8600   89.1230   72.2330 O.2    94  ILE94      -0.2715
     56  CB         9.0170   89.2740   71.0300 C.3    94  ILE94       0.0290
     57  CG1        9.3370   90.1720   69.8350 C.3    94  ILE94       0.0022
     58  CG2        9.0570   90.0540   72.3330 C.3    94  ILE94       0.0023
     59  CD1        8.3640   91.3060   69.6540 C.3    94  ILE94       0.0001
     60  N         12.2030   88.4600   70.1120 N.am   95  ASP95      -0.1957
     61  CA        13.5770   88.9320   70.0550 C.3    95  ASP95       0.1840
     62  C         13.7580   89.8000   68.8070 C.2    95  ASP95       0.2623
     63  O         13.5280   91.0070   68.8610 O.2    95  ASP95      -0.2715
     64  CB        14.5530   87.7480   70.0590 C.3    95  ASP95       0.1450
     65  CG        14.1720   86.6600   69.0680 C.2    95  ASP95       0.3671
     66  OD1       14.7570   85.5610   69.1570 O.co2  95  ASP95      -0.2456
     67  OD2       13.2990   86.8920   68.2010 O.co2  95  ASP95      -0.2456
     68  N         14.1390   89.1940   67.6850 N.am   96  SER96      -0.1936
     69  CA        14.3380   89.9420   66.4460 C.3    96  SER96       0.2055
     70  C         13.0860   90.7370   66.0810 C.2    96  SER96       0.2644
     71  O         13.1800   91.8120   65.4860 O.2    96  SER96      -0.2714
     72  CB        14.6690   88.9960   65.2970 C.3    96  SER96       0.2130
     73  OG        13.4950   88.3620   64.8200 O.3    96  SER96      -0.2179
     74  N         11.9220   90.1900   66.4320 N.am   97  GLY97      -0.1939
     75  CA        10.6550   90.8440   66.1450 C.3    97  GLY97       0.2014
     76  C         10.1690   90.6740   64.7150 C.2    97  GLY97       0.2639
     77  O          9.2490   91.3610   64.2790 O.2    97  GLY97      -0.2714
     78  N         10.7740   89.7480   63.9830 N.am   98  ASN98      -0.1958
     79  CA        10.4040   89.5170   62.5930 C.3    98  ASN98       0.1819
     80  C          9.0790   88.7830   62.4130 C.2    98  ASN98       0.2622
     81  O          8.1620   89.3000   61.7770 O.2    98  ASN98      -0.2715
     82  CB        11.5150   88.7400   61.8830 C.3    98  ASN98       0.1195
     83  CG        12.8790   89.4170   62.0040 C.2    98  ASN98       0.2630
     84  OD1       13.9060   88.8330   61.6460 O.2    98  ASN98      -0.2716
     85  ND2       12.8940   90.6520   62.5070 N.am   98  ASN98      -0.0877
     86  N          8.9760   87.5780   62.9620 N.am   99  THR99      -0.1937
     87  CA         7.7510   86.7990   62.8240 C.3    99  THR99       0.2028
     88  C          6.5270   87.5640   63.3230 C.2    99  THR99       0.2642
     89  O          5.5740   87.7780   62.5670 O.2    99  THR99      -0.2714
     90  CB         7.8590   85.4520   63.5710 C.3    99  THR99       0.1808
     91  OG1        8.9180   84.6710   62.9970 O.3    99  THR99      -0.2208
     92  CG2        6.5530   84.6720   63.4650 C.3    99  THR99       0.0379
     93  N          6.5480   87.9750   64.5870 N.am  100  LEU100     -0.1977
     94  CA         5.4280   88.7270   65.1430 C.3   100  LEU100      0.1596
     95  C          5.0750   89.8840   64.2100 C.2   100  LEU100      0.2287
     96  O          3.9030   90.1960   64.0000 O.2   100  LEU100     -0.2864
     97  CB         5.7850   89.2830   66.5240 C.3   100  LEU100      0.0297
     98  CG         5.2860   88.6130   67.8080 C.3   100  LEU100      0.0022
     99  CD1        4.3940   87.4320   67.4910 C.3   100  LEU100      0.0001
    100  CD2        6.4840   88.1910   68.6410 C.3   100  LEU100      0.0001
@<TRIPOS>BOND
     1    24    23    2
     2    23    22    1
     3    21    22    1
     4    22    25    1
     5    84    83    2
     6    81    80    2
     7    82    83    1
     8    82    79    1
     9    83    85   am
    10    80    79    1
    11    80    86   am
    12    89    88    2
    13    79    78    1
    14    87    86    1
    15    87    88    1
    16    87    90    1
    17    25    26    1
    18    91    90    1
    19    88    93   am
    20    92    90    1
    21    78    76   am
    22    96    95    2
    23    95    94    1
    24    77    76    2
    25    93    94    1
    26    76    75    1
    27    73    72    1
    28    94    97    1
    29    72    69    1
    30    71    70    2
    31    70    74   am
    32    70    69    1
    33    12    11    2
    34     7     6    1
    35    75    74    1
    36     6     8    1
    37     6     5    1
    38    69    68    1
    39    97    98    1
    40    16    14    1
    41    13    10    1
    42    13    14    1
    43    11    10    1
    44     9    10    1
    45     9     3   am
    46     5     2    1
    47    99    98    1
    48     2     3    1
    49     2     1    1
    50    68    62   am
    51    14    15    1
    52    98   100    1
    53     3     4    2
    54    67    65   ar
    55    34    33   ar
    56    62    63    2
    57    62    61    1
    58    65    66   ar
    59    65    64    1
    60    33    35   ar
    61    33    32    1
    62    59    57    1
    63    57    56    1
    64    61    64    1
    65    61    60    1
    66    60    54   am
    67    17    18    1
    68    32    31    1
    69    31    28    1
    70    47    46    2
    71    56    53    1
    72    56    58    1
    73    53    54    1
    74    53    52    1
    75    54    55    2
    76    18    19    1
    77    28    27    1
    78    28    29    1
    79    42    41   ar
    80    46    52   am
    81    46    45    1
    82    19    20    2
    83    50    48    1
    84    41    43   ar
    85    41    40    1
    86    36    29   am
    87    36    37    1
    88    29    30    2
    89    44    45    1
    90    44    38   am
    91    45    48    1
    92    48    49    1
    93    49    51    1
    94    40    37    1
    95    37    38    1
    96    38    39    2
