@<TRIPOS>MOLECULE
tmp/1ga0A00.pdb
 130 119 0 0 0
SMALL
GASTEIGER

@<TRIPOS>ATOM
      1  N         14.8160   16.8730   12.2270 N.3    62  GLY62      -0.1210
      2  CA        15.5010   17.4720   11.1050 C.3    62  GLY62       0.1956
      3  C         16.2140   16.3830   10.3110 C.2    62  GLY62       0.2612
      4  O         15.6480   15.3130   10.0580 O.2    62  GLY62      -0.2717
      5  N         17.4670   16.6390    9.9500 N.am   63  SER63      -0.1952
      6  CA        18.2460   15.6960    9.1520 C.3    63  SER63       0.1924
      7  C         18.5950   14.3450    9.7720 C.2    63  SER63       0.2314
      8  O         19.0900   13.4600    9.0710 O.2    63  SER63      -0.2863
      9  CB        19.5200   16.3580    8.6160 C.3    63  SER63       0.2116
     10  OG        19.1950   17.3570    7.6500 O.3    63  SER63      -0.2180
     11  N         17.2100   11.2540    8.2900 N.3    66  LYS66      -0.1245
     12  CA        17.9010   10.5110    7.2470 C.3    66  LYS66       0.1561
     13  C         18.4020    9.1370    7.7230 C.2    66  LYS66       0.2260
     14  O         18.5690    8.2300    6.9140 O.2    66  LYS66      -0.2867
     15  CB        19.0730   11.3280    6.7030 C.3    66  LYS66       0.0271
     16  CG        18.6750   12.5750    5.8790 C.3    66  LYS66       0.0035
     17  CD        19.9190   13.2120    5.2560 C.3    66  LYS66       0.0206
     18  CE        19.5780   14.3220    4.2720 C.3    66  LYS66       0.1093
     19  NZ        19.1520   15.5710    4.9540 N.3    66  LYS66      -0.1314
     20  N         21.4770   20.7980   -2.7740 N.3   118  LEU118     -0.1231
     21  CA        21.0900   20.6320   -1.3660 C.3   118  LEU118      0.1693
     22  C         19.5920   20.4360   -1.1630 C.2   118  LEU118      0.2591
     23  O         19.1640   19.5560   -0.4140 O.2   118  LEU118     -0.2718
     24  CB        21.5470   21.8490   -0.5510 C.3   118  LEU118      0.0284
     25  CG        21.2470   21.8580    0.9530 C.3   118  LEU118      0.0019
     26  CD1       21.8160   20.5990    1.6180 C.3   118  LEU118      0.0001
     27  CD2       21.8680   23.0890    1.5750 C.3   118  LEU118      0.0001
     28  N         18.7970   21.2590   -1.8340 N.am  119  GLN119     -0.1979
     29  CA        17.3550   21.1750   -1.7260 C.3   119  GLN119      0.1601
     30  C         16.6420   21.0740   -3.0630 C.2   119  GLN119      0.2287
     31  O         17.1770   21.4610   -4.1060 O.2   119  GLN119     -0.2864
     32  CB        16.8250   22.3960   -0.9720 C.3   119  GLN119      0.0394
     33  CG        16.7720   22.3080    0.5260 C.3   119  GLN119      0.0908
     34  CD        15.7010   21.4270    1.1130 C.2   119  GLN119      0.2608
     35  OE1       15.5050   21.2880    2.3190 O.2   119  GLN119     -0.2717
     36  NE2       14.9270   20.7870    0.2110 N.am  119  GLN119     -0.0878
     37  N         26.4670   16.8240    0.1120 N.3   149  TYR149     -0.1241
     38  CA        25.3070   16.5780    0.9670 C.3   149  TYR149      0.1605
     39  C         24.0870   17.2010    0.2990 C.2   149  TYR149      0.2264
     40  O         24.0970   18.3960   -0.0280 O.2   149  TYR149     -0.2867
     41  CB        25.5360   17.1920    2.3480 C.3   149  TYR149      0.0534
     42  CG        24.4550   16.8670    3.3490 C.ar  149  TYR149     -0.0201
     43  CD1       24.3820   15.6040    3.9460 C.ar  149  TYR149     -0.0009
     44  CD2       23.5260   17.8390    3.7340 C.ar  149  TYR149     -0.0009
     45  CE1       23.4070   15.3180    4.9240 C.ar  149  TYR149      0.0417
     46  CE2       22.5480   17.5670    4.7010 C.ar  149  TYR149      0.0417
     47  CZ        22.4980   16.3090    5.2960 C.ar  149  TYR149      0.1957
     48  OH        21.5640   16.0640    6.2770 O.3   149  TYR149     -0.2866
     49  N         19.5200   16.9350    0.0790 N.3   151  ASN151     -0.1240
     50  CA        18.2060   16.3590    0.3290 C.3   151  ASN151      0.1653
     51  C         17.6100   15.9160   -1.0070 C.2   151  ASN151      0.2266
     52  O         16.7980   14.9960   -1.0550 O.2   151  ASN151     -0.2867
     53  CB        17.2700   17.3810    0.9860 C.3   151  ASN151      0.1155
     54  CG        17.6130   17.6370    2.4440 C.2   151  ASN151      0.2627
     55  OD1       18.4390   16.9450    3.0330 O.2   151  ASN151     -0.2716
     56  ND2       16.9620   18.6280    3.0370 N.am  151  ASN151     -0.0877
     57  N         32.2320   19.1870   11.6590 N.3   289  SER289     -0.1217
     58  CA        30.8140   19.5610   11.7580 C.3   289  SER289      0.1889
     59  C         30.5040   20.9830   11.2910 C.2   289  SER289      0.2288
     60  O         29.3410   21.3740   11.2200 O.2   289  SER289     -0.2866
     61  CB        30.3070   19.4150   13.1960 C.3   289  SER289      0.2089
     62  OG        30.8410   20.4360   14.0180 O.3   289  SER289     -0.2183
     63  N         29.7000   23.9850    8.9440 N.3   291  SER291     -0.1217
     64  CA        28.9890   24.0450    7.6690 C.3   291  SER291      0.1889
     65  C         29.9200   24.2160    6.4660 C.2   291  SER291      0.2288
     66  O         29.6600   23.6650    5.3960 O.2   291  SER291     -0.2866
     67  CB        27.9590   25.1760    7.6950 C.3   291  SER291      0.2089
     68  OG        28.5840   26.4210    7.9420 O.3   291  SER291     -0.2183
     69  N         30.9800   20.6190    6.0550 N.3   294  ALA294     -0.1231
     70  CA        29.8320   19.7150    5.9380 C.3   294  ALA294      0.1694
     71  C         29.0200   19.9040    4.6640 C.2   294  ALA294      0.2591
     72  O         28.4350   18.9520    4.1750 O.2   294  ALA294     -0.2718
     73  CB        28.9170   19.8540    7.1490 C.3   294  ALA294      0.0304
     74  N         28.9760   21.1180    4.1210 N.am  295  LEU295     -0.1980
     75  CA        28.2020   21.3760    2.8950 C.3   295  LEU295      0.1596
     76  C         29.0210   21.5110    1.6000 C.2   295  LEU295      0.2287
     77  O         28.4600   21.6710    0.5180 O.2   295  LEU295     -0.2864
     78  CB        27.3390   22.6350    3.0690 C.3   295  LEU295      0.0297
     79  CG        26.3410   22.6580    4.2360 C.3   295  LEU295      0.0022
     80  CD1       25.4340   23.8560    4.0600 C.3   295  LEU295      0.0001
     81  CD2       25.5130   21.3660    4.2720 C.3   295  LEU295      0.0001
     82  N         23.8940   14.8580   12.7960 N.3   318  THR318     -0.1203
     83  CA        23.3550   16.0820   13.3570 C.3   318  THR318      0.1994
     84  C         22.0940   16.4040   12.5450 C.2   318  THR318      0.2618
     85  O         21.9290   15.9240   11.4250 O.2   318  THR318     -0.2717
     86  CB        24.3750   17.2540   13.2450 C.3   318  THR318      0.1784
     87  OG1       23.8160   18.4240   13.8460 O.3   318  THR318     -0.2211
     88  CG2       24.7560   17.5110   11.8020 C.3   318  THR318      0.0376
     89  N         21.1910   17.1940   13.1130 N.am  319  GLY319     -0.1942
     90  CA        19.9850   17.5510   12.3850 C.3   319  GLY319      0.2014
     91  C         19.3170   18.7650   12.9910 C.2   319  GLY319      0.2640
     92  O         19.3080   18.9200   14.2080 O.2   319  GLY319     -0.2714
     93  N         18.7590   19.6250   12.1450 N.am  320  SER320     -0.1935
     94  CA        18.0890   20.8300   12.6170 C.3   320  SER320      0.2055
     95  C         16.9020   21.1630   11.7280 C.2   320  SER320      0.2643
     96  O         16.7830   20.6610   10.6060 O.2   320  SER320     -0.2714
     97  CB        19.0370   22.0390   12.5790 C.3   320  SER320      0.2130
     98  OG        20.2150   21.8250   13.3170 O.3   320  SER320     -0.2179
     99  N         16.0270   22.0140   12.2570 N.am  321  THR321     -0.1950
    100  CA        14.8640   22.5340   11.5350 C.3   321  THR321      0.1897
    101  C         14.8820   24.0110   11.9340 C.2   321  THR321      0.2313
    102  O         15.8100   24.4500   12.6130 O.2   321  THR321     -0.2863
    103  CB        13.5390   21.9130   12.0050 C.3   321  THR321      0.1794
    104  OG1       13.3900   22.1480   13.4080 O.3   321  THR321     -0.2208
    105  CG2       13.5090   20.3990   11.7180 C.3   321  THR321      0.0378
    106  N         17.8580   25.7240   17.3600 N.3   345  SER345     -0.1217
    107  CA        18.9700   25.2730   16.5340 C.3   345  SER345      0.1889
    108  C         20.2600   26.0360   16.8360 C.2   345  SER345      0.2288
    109  O         20.4680   27.1340   16.3340 O.2   345  SER345     -0.2866
    110  CB        18.6260   25.4310   15.0560 C.3   345  SER345      0.2089
    111  OG        19.7350   25.0830   14.2500 O.3   345  SER345     -0.2183
    112  N         26.2750   23.4230   15.3340 N.3   348  ASN348     -0.1240
    113  CA        26.6030   22.0040   15.3560 C.3   348  ASN348      0.1653
    114  C         27.8970   21.6920   16.0750 C.2   348  ASN348      0.2266
    115  O         28.0100   20.6500   16.7020 O.2   348  ASN348     -0.2867
    116  CB        26.6640   21.4400   13.9410 C.3   348  ASN348      0.1155
    117  CG        25.2960   21.2740   13.3370 C.2   348  ASN348      0.2627
    118  OD1       24.4000   20.7010   13.9460 O.2   348  ASN348     -0.2716
    119  ND2       25.1270   21.7710   12.1350 N.am  348  ASN348     -0.0877
    120  N         27.2780   21.2120   19.6830 N.3   351  ARG351     -0.1245
    121  CA        26.5770   19.9540   19.9420 C.3   351  ARG351      0.1563
    122  C         27.6120   18.8310   20.0300 C.2   351  ARG351      0.2260
    123  O         27.6190   18.0490   20.9800 O.2   351  ARG351     -0.2867
    124  CB        25.5950   19.6360   18.8090 C.3   351  ARG351      0.0307
    125  CG        24.5790   20.7290   18.5230 C.3   351  ARG351      0.0489
    126  CD        23.6130   20.3310   17.4030 C.3   351  ARG351      0.2205
    127  NE        22.9420   21.4930   16.8230 N.pl3 351  ARG351     -0.0865
    128  CZ        22.0380   21.4410   15.8450 C.cat 351  ARG351      0.5346
    129  NH1       21.6800   20.2770   15.3180 N.pl3 351  ARG351      0.1354
    130  NH2       21.4780   22.5610   15.3990 N.pl3 351  ARG351      0.1354
@<TRIPOS>BOND
     1    31    30    2
     2    30    29    1
     3    20    21    1
     4    28    29    1
     5    28    22   am
     6    29    32    1
     7    21    22    1
     8    21    24    1
     9    22    23    2
    10    52    51    2
    11    51    50    1
    12    32    33    1
    13    24    25    1
    14    40    39    2
    15    49    50    1
    16    37    38    1
    17    36    34   am
    18    39    38    1
    19    50    53    1
    20    77    76    2
    21    33    34    1
    22    25    27    1
    23    25    26    1
    24    38    41    1
    25    53    54    1
    26    34    35    2
    27    76    75    1
    28    41    42    1
    29    54    55    2
    30    54    56   am
    31    75    78    1
    32    75    74    1
    33    78    79    1
    34    42    44   ar
    35    42    43   ar
    36    44    46   ar
    37    43    45   ar
    38    80    79    1
    39    74    71   am
    40    72    71    2
    41    79    81    1
    42    18    19    1
    43    18    17    1
    44    71    70    1
    45    46    47   ar
    46    45    47   ar
    47    17    16    1
    48    47    48    1
    49    66    65    2
    50    16    15    1
    51    70    69    1
    52    70    73    1
    53    65    64    1
    54    15    12    1
    55    14    13    2
    56    12    13    1
    57    12    11    1
    58    10     9    1
    59    64    67    1
    60    64    63    1
    61    67    68    1
    62     9     6    1
    63     8     7    2
    64     6     7    1
    65     6     5    1
    66     5     3   am
    67     4     3    2
    68     3     2    1
    69    96    95    2
    70     2     1    1
    71    60    59    2
    72    59    58    1
    73    85    84    2
    74   100   101    1
    75   100   103    1
    76   100    99    1
    77    57    58    1
    78   105   103    1
    79    95    99   am
    80    95    94    1
    81    58    61    1
    82    88    86    1
    83   101   102    2
    84   103   104    1
    85   119   117   am
    86    93    94    1
    87    93    91   am
    88    90    91    1
    89    90    89    1
    90    84    89   am
    91    84    83    1
    92    97    94    1
    93    97    98    1
    94    82    83    1
    95    91    92    2
    96    61    62    1
    97    86    83    1
    98    86    87    1
    99   117   116    1
   100   117   118    2
   101   116   113    1
   102   111   110    1
   103   110   107    1
   104   129   128    1
   105   112   113    1
   106   113   114    1
   107   130   128    1
   108   128   127    2
   109   114   115    2
   110   109   108    2
   111   107   108    1
   112   107   106    1
   113   127   126    1
   114   126   125    1
   115   125   124    1
   116   124   121    1
   117   120   121    1
   118   121   122    1
   119   122   123    2
