@<TRIPOS>MOLECULE
tmp/1ga1A00.pdb
 122 116 0 0 0
SMALL
GASTEIGER

@<TRIPOS>ATOM
      1  N         18.4380   20.1460   16.4620 N.3    77  GLY77      -0.1210
      2  CA        19.3650   19.7380   17.5100 C.3    77  GLY77       0.1956
      3  C         20.8230   19.6260   17.0320 C.2    77  GLY77       0.2611
      4  O         21.7440   19.9330   17.7790 O.2    77  GLY77      -0.2717
      5  N         21.0100   19.1870   15.7910 N.am   78  GLU78      -0.1979
      6  CA        22.3620   19.2030   15.2300 C.3    78  GLU78       0.1602
      7  C         22.8800   20.6070   15.0050 C.2    78  GLU78       0.2287
      8  O         24.0330   20.8830   15.3410 O.2    78  GLU78      -0.2864
      9  CB        22.3520   18.4170   13.9120 C.3    78  GLU78       0.0415
     10  CG        23.7560   18.3640   13.3240 C.3    78  GLU78       0.1163
     11  CD        24.7900   17.5500   14.0660 C.2    78  GLU78       0.3649
     12  OE1       25.7220   18.2360   14.6330 O.co2  78  GLU78      -0.2457
     13  OE2       24.5410   16.3080   13.9070 O.co2  78  GLU78      -0.2457
     14  N         23.7640   21.8900   18.3920 N.3    81  LEU81      -0.1245
     15  CA        25.0490   21.3370   18.8480 C.3    81  LEU81       0.1561
     16  C         26.2080   22.0800   18.1960 C.2    81  LEU81       0.2260
     17  O         27.1890   22.4700   18.8390 O.2    81  LEU81      -0.2867
     18  CB        25.0710   19.8500   18.5070 C.3    81  LEU81       0.0270
     19  CG        26.3170   19.0560   18.8390 C.3    81  LEU81       0.0019
     20  CD1       26.5630   19.0440   20.3230 C.3    81  LEU81       0.0001
     21  CD2       26.2270   17.6400   18.3050 C.3    81  LEU81       0.0001
     22  N         29.5300    8.2960   13.2580 N.3   168  ASP168     -0.1239
     23  CA        29.0200    7.8880   14.5710 C.3   168  ASP168      0.1674
     24  C         28.7440    6.4080   14.6690 C.2   168  ASP168      0.2266
     25  O         28.1750    5.9340   15.6490 O.2   168  ASP168     -0.2867
     26  CB        27.7530    8.6630   14.9400 C.3   168  ASP168      0.1410
     27  CG        27.9900   10.0790   15.3230 C.2   168  ASP168      0.3668
     28  OD1       26.9720   10.7640   15.6540 O.co2 168  ASP168     -0.2456
     29  OD2       29.1310   10.6110   15.3270 O.co2 168  ASP168     -0.2456
     30  N         35.8990    7.1920   21.8010 N.3   218  TRP218     -0.1241
     31  CA        34.4370    7.1440   21.8980 C.3   218  TRP218      0.1605
     32  C         33.8880    5.8460   21.3480 C.2   218  TRP218      0.2264
     33  O         33.9590    5.5950   20.1490 O.2   218  TRP218     -0.2867
     34  CB        33.8230    8.3460   21.1320 C.3   218  TRP218      0.0550
     35  CG        32.3220    8.2110   21.1050 C.ar  218  TRP218      0.0003
     36  CD1       31.4950    7.8020   22.1330 C.ar  218  TRP218      0.0946
     37  CD2       31.4570    8.4670   19.9750 C.ar  218  TRP218      0.0152
     38  NE1       30.1930    7.8030   21.7040 N.ar  218  TRP218     -0.2442
     39  CE2       30.1470    8.1980   20.4130 C.ar  218  TRP218      0.0810
     40  CE3       31.6890    8.8990   18.6720 C.ar  218  TRP218      0.0012
     41  CZ2       29.0270    8.3460   19.5760 C.ar  218  TRP218      0.0191
     42  CZ3       30.6170    9.0410   17.8400 C.ar  218  TRP218      0.0001
     43  CH2       29.3170    8.7600   18.3160 C.ar  218  TRP218      0.0015
     44  N         30.3460    3.8470   22.6900 N.3   220  GLU220     -0.1245
     45  CA        29.2950    3.6270   23.6940 C.3   220  GLU220      0.1567
     46  C         28.4350    2.4190   23.3910 C.2   220  GLU220      0.2260
     47  O         27.3960    2.2100   23.9670 O.2   220  GLU220     -0.2867
     48  CB        28.4520    4.9180   23.8520 C.3   220  GLU220      0.0388
     49  CG        29.1720    5.8840   24.7800 C.3   220  GLU220      0.1160
     50  CD        28.5560    7.2780   24.8570 C.2   220  GLU220      0.3649
     51  OE1       28.4120    7.7930   25.9870 O.co2 220  GLU220     -0.2457
     52  OE2       28.2620    7.8840   23.7760 O.co2 220  GLU220     -0.2457
     53  N         26.1150   -0.5580   21.5990 N.3   222  LEU222     -0.1231
     54  CA        24.8810   -0.5720   20.8190 C.3   222  LEU222      0.1693
     55  C         23.7210    0.1000   21.5230 C.2   222  LEU222      0.2592
     56  O         23.5670   -0.0100   22.7280 O.2   222  LEU222     -0.2718
     57  CB        24.4590   -2.0190   20.5670 C.3   222  LEU222      0.0284
     58  CG        25.5080   -2.9010   19.9090 C.3   222  LEU222      0.0019
     59  CD1       24.8600   -4.2460   19.5090 C.3   222  LEU222      0.0001
     60  CD2       26.1350   -2.2410   18.7000 C.3   222  LEU222      0.0001
     61  N         22.8960    0.7790   20.7450 N.am  223  ASP223     -0.1974
     62  CA        21.6490    1.2900   21.2590 C.3   223  ASP223      0.1709
     63  C         20.5730    0.2080   21.2010 C.2   223  ASP223      0.2293
     64  O         20.8470   -0.9440   20.8740 O.2   223  ASP223     -0.2864
     65  CB        21.2670    2.5360   20.4930 C.3   223  ASP223      0.1436
     66  CG        20.8260    2.3520   19.0660 C.2   223  ASP223      0.3671
     67  OD1       20.7850    3.4090   18.4000 O.co2 223  ASP223     -0.2456
     68  OD2       20.5270    1.2360   18.6310 O.co2 223  ASP223     -0.2456
     69  N         27.3540    3.0920   18.3520 N.3   229  TRP229     -0.1241
     70  CA        27.6730    4.5160   18.5410 C.3   229  TRP229      0.1605
     71  C         29.1460    4.6100   18.8980 C.2   229  TRP229      0.2264
     72  O         29.5620    4.3000   20.0220 O.2   229  TRP229     -0.2867
     73  CB        26.7440    5.0610   19.6170 C.3   229  TRP229      0.0550
     74  CG        25.3480    5.2380   19.0600 C.ar  229  TRP229      0.0003
     75  CD1       24.3040    4.3700   19.1990 C.ar  229  TRP229      0.0946
     76  CD2       24.8370    6.3190   18.2670 C.ar  229  TRP229      0.0152
     77  NE1       23.1790    4.8220   18.5700 N.ar  229  TRP229     -0.2442
     78  CE2       23.4870    6.0300   17.9780 C.ar  229  TRP229      0.0810
     79  CE3       25.3870    7.4980   17.7590 C.ar  229  TRP229      0.0012
     80  CZ2       22.6930    6.8950   17.2170 C.ar  229  TRP229      0.0191
     81  CZ3       24.6100    8.3800   16.9970 C.ar  229  TRP229      0.0001
     82  CH2       23.2600    8.0530   16.7340 C.ar  229  TRP229      0.0015
     83  N         28.3570   10.6730   24.3570 N.3   266  GLN266     -0.1245
     84  CA        27.2100   11.3180   24.9540 C.3   266  GLN266      0.1566
     85  C         27.3920   11.4140   26.4560 C.2   266  GLN266      0.2260
     86  O         26.9940   12.4260   27.0620 O.2   266  GLN266     -0.2867
     87  CB        25.9250   10.5840   24.5780 C.3   266  GLN266      0.0367
     88  CG        24.6560   11.2540   25.0530 C.3   266  GLN266      0.0905
     89  CD        24.2790   11.0350   26.4890 C.2   266  GLN266      0.2608
     90  OE1       24.6380   10.0250   27.0890 O.2   266  GLN266     -0.2717
     91  NE2       23.5410   11.9920   27.0130 N.am  266  GLN266     -0.0878
     92  N         21.9640   16.7090   26.9910 N.3   280  GLN280     -0.1231
     93  CA        23.3690   16.2990   26.9040 C.3   280  GLN280      0.1698
     94  C         23.5540   15.4640   25.6440 C.2   280  GLN280      0.2592
     95  O         22.9550   14.3960   25.4750 O.2   280  GLN280     -0.2718
     96  CB        23.7450   15.5430   28.1650 C.3   280  GLN280      0.0381
     97  CG        25.2190   15.1720   28.2440 C.3   280  GLN280      0.0905
     98  CD        25.5460   14.6260   29.6150 C.2   280  GLN280      0.2608
     99  OE1       25.2160   15.2100   30.6530 O.2   280  GLN280     -0.2717
    100  NE2       26.2260   13.5060   29.6070 N.am  280  GLN280     -0.0878
    101  N         24.3700   15.9720   24.7410 N.am  281  ILE281     -0.1966
    102  CA        24.5020   15.4410   23.4090 C.3   281  ILE281      0.1727
    103  C         25.9640   15.1990   23.0440 C.2   281  ILE281      0.2617
    104  O         26.8450   15.9870   23.3580 O.2   281  ILE281     -0.2715
    105  CB        23.8910   16.4670   22.4030 C.3   281  ILE281      0.0290
    106  CG1       22.4910   16.9300   22.7880 C.3   281  ILE281      0.0022
    107  CG2       23.9270   15.9320   20.9710 C.3   281  ILE281      0.0023
    108  CD1       21.8370   17.9140   21.7720 C.3   281  ILE281      0.0001
    109  N         26.2160   14.0820   22.3650 N.am  282  GLY282     -0.1940
    110  CA        27.5220   13.7460   21.8210 C.3   282  GLY282      0.2014
    111  C         27.5100   13.4590   20.3500 C.2   282  GLY282      0.2639
    112  O         26.6870   13.9310   19.6010 O.2   282  GLY282     -0.2714
    113  N         28.4810   12.6980   19.9190 N.am  283  GLY283     -0.1954
    114  CA        28.8310   12.3590   18.5880 C.3   283  GLY283      0.1869
    115  C         30.0700   13.0460   18.0780 C.2   283  GLY283      0.2309
    116  O         30.5730   14.0070   18.6540 O.2   283  GLY283     -0.2863
    117  N         29.5950   14.6220   15.6690 N.3   285  SER285     -0.1217
    118  CA        28.9070   15.8840   15.4310 C.3   285  SER285      0.1889
    119  C         29.1950   16.9530   16.4820 C.2   285  SER285      0.2288
    120  O         28.9350   18.1310   16.1930 O.2   285  SER285     -0.2866
    121  CB        27.4000   15.6000   15.5210 C.3   285  SER285      0.2089
    122  OG        26.9150   14.9370   14.3790 O.3   285  SER285     -0.2183
@<TRIPOS>BOND
     1    22    23    1
     2    10     9    1
     3    10    11    1
     4    13    11   ar
     5     9     6    1
     6    11    12   ar
     7   122   121    1
     8    23    24    1
     9    23    26    1
    10    24    25    2
    11    26    27    1
    12     7     6    1
    13     7     8    2
    14     6     5    1
    15    27    29   ar
    16    27    28   ar
    17   118   121    1
    18   118   117    1
    19   118   119    1
    20     5     3   am
    21   120   119    2
    22     1     2    1
    23    82    81   ar
    24    82    80   ar
    25    81    79   ar
    26     3     2    1
    27     3     4    2
    28    80    78   ar
    29    79    76   ar
    30    42    43   ar
    31    42    40   ar
    32    78    76   ar
    33    78    77   ar
    34   115   114    1
    35   115   116    2
    36    16    17    2
    37    16    15    1
    38    76    74   ar
    39    21    19    1
    40    43    41   ar
    41    69    70    1
    42    14    15    1
    43    67    66   ar
    44    18    19    1
    45    18    15    1
    46    70    71    1
    47    70    73    1
    48    77    75   ar
    49   114   113    1
    50    68    66   ar
    51    40    37   ar
    52    60    58    1
    53    19    20    1
    54    71    72    2
    55    74    75   ar
    56    74    73    1
    57    66    65    1
    58    59    58    1
    59    41    39   ar
    60   112   111    2
    61    58    57    1
    62   113   111   am
    63    37    39   ar
    64    37    35   ar
    65    33    32    2
    66   111   110    1
    67    39    38   ar
    68    65    62    1
    69    57    54    1
    70    61    62    1
    71    61    55   am
    72    54    55    1
    73    54    53    1
    74    64    63    2
    75   107   105    1
    76    35    34    1
    77    35    36   ar
    78    34    31    1
    79    63    62    1
    80    32    31    1
    81    55    56    2
    82    38    36   ar
    83   108   106    1
    84    30    31    1
    85   110   109    1
    86   109   103   am
    87   105   106    1
    88   105   102    1
    89    44    45    1
    90   103   104    2
    91   103   102    1
    92    46    45    1
    93    46    47    2
    94   102   101    1
    95    45    48    1
    96    52    50   ar
    97    48    49    1
    98    83    84    1
    99    87    84    1
   100    87    88    1
   101   101    94   am
   102    49    50    1
   103    50    51   ar
   104    84    85    1
   105    88    89    1
   106    95    94    2
   107    94    93    1
   108    85    86    2
   109    89    91   am
   110    89    90    2
   111    93    92    1
   112    93    96    1
   113    96    97    1
   114    97    98    1
   115   100    98   am
   116    98    99    2
