@<TRIPOS>MOLECULE
tmp/1ga2B00.pdb
 120 122 0 0 0
SMALL
GASTEIGER

@<TRIPOS>ATOM
      1  N         13.5960    9.9670   14.7580 N.3   207  SER207     -0.1202
      2  CA        13.9580   10.8930   15.8210 C.3   207  SER207      0.2020
      3  C         14.3120   10.1410   17.0960 C.2   207  SER207      0.2619
      4  O         14.6170   10.7560   18.1240 O.2   207  SER207     -0.2717
      5  CB        12.8060   11.8660   16.0970 C.3   207  SER207      0.2103
      6  OG        11.6640   11.1980   16.6070 O.3   207  SER207     -0.2182
      7  N         14.3060    8.8110   17.0280 N.am  208  SER208     -0.1951
      8  CA        14.5920    8.0150   18.2190 C.3   208  SER208      0.1924
      9  C         14.7680    6.5480   17.8950 C.2   208  SER208      0.2314
     10  O         14.1450    6.0460   16.9690 O.2   208  SER208     -0.2863
     11  CB        13.4300    8.1420   19.2100 C.3   208  SER208      0.2116
     12  OG        12.2080    7.6980   18.6140 O.3   208  SER208     -0.2180
     13  N          2.6870   12.6180   23.3760 N.3   253  TRP253     -0.1241
     14  CA         2.5180   12.2880   21.9580 C.3   253  TRP253      0.1605
     15  C          1.7160   10.9810   21.9380 C.2   253  TRP253      0.2264
     16  O          0.8510   10.7770   22.7730 O.2   253  TRP253     -0.2867
     17  CB         3.8670   12.1040   21.2510 C.3   253  TRP253      0.0550
     18  CG         3.8100   12.4270   19.7640 C.ar  253  TRP253      0.0003
     19  CD1        4.0330   11.5700   18.7150 C.ar  253  TRP253      0.0946
     20  CD2        3.5140   13.7020   19.1820 C.ar  253  TRP253      0.0152
     21  NE1        3.8940   12.2400   17.5180 N.ar  253  TRP253     -0.2442
     22  CE2        3.5790   13.5490   17.7760 C.ar  253  TRP253      0.0810
     23  CE3        3.2050   14.9670   19.7140 C.ar  253  TRP253      0.0012
     24  CZ2        3.3370   14.6120   16.8950 C.ar  253  TRP253      0.0191
     25  CZ3        2.9660   16.0240   18.8370 C.ar  253  TRP253      0.0001
     26  CH2        3.0370   15.8390   17.4440 C.ar  253  TRP253      0.0015
     27  N          3.3260    5.6020   17.3820 N.3   256  CYS256     -0.1221
     28  CA         3.3790    5.8210   15.9320 C.3   256  CYS256      0.1808
     29  C          4.6840    5.2370   15.3860 C.2   256  CYS256      0.2601
     30  O          5.5410    4.8030   16.1510 O.2   256  CYS256     -0.2717
     31  CB         3.2760    7.3120   15.5860 C.3   256  CYS256      0.0970
     32  SG         4.6510    8.3010   16.2050 S.3   256  CYS256     -0.0800
     33  N          4.8350    5.2210   14.0670 N.am  257  TRP257     -0.1962
     34  CA         6.0290    4.6390   13.4570 C.3   257  TRP257      0.1771
     35  C          7.3600    5.1920   13.9780 C.2   257  TRP257      0.2620
     36  O          8.3700    4.4800   13.9750 O.2   257  TRP257     -0.2715
     37  CB         5.9720    4.7980   11.9290 C.3   257  TRP257      0.0590
     38  CG         5.9700    6.2430   11.4740 C.ar  257  TRP257      0.0006
     39  CD1        4.8820    7.0250   11.2100 C.ar  257  TRP257      0.0946
     40  CD2        7.1220    7.0870   11.3100 C.ar  257  TRP257      0.0152
     41  NE1        5.2900    8.3120   10.8930 N.ar  257  TRP257     -0.2442
     42  CE2        6.6580    8.3700   10.9500 C.ar  257  TRP257      0.0810
     43  CE3        8.5030    6.8770   11.4330 C.ar  257  TRP257      0.0012
     44  CZ2        7.5330    9.4470   10.7140 C.ar  257  TRP257      0.0191
     45  CZ3        9.3710    7.9440   11.2010 C.ar  257  TRP257      0.0001
     46  CH2        8.8840    9.2070   10.8460 C.ar  257  TRP257      0.0015
     47  N          7.3560    6.4420   14.4430 N.am  258  ASP258     -0.1957
     48  CA         8.5890    7.1040   14.9270 C.3   258  ASP258      0.1840
     49  C          8.7650    6.9990   16.4350 C.2   258  ASP258      0.2622
     50  O          9.8620    7.2160   16.9610 O.2   258  ASP258     -0.2715
     51  CB         8.5550    8.5870   14.5230 C.3   258  ASP258      0.1450
     52  CG         9.8950    9.3060   14.7340 C.2   258  ASP258      0.3671
     53  OD1       10.9680    8.7270   14.4700 O.co2 258  ASP258     -0.2456
     54  OD2        9.8690   10.4810   15.1420 O.co2 258  ASP258     -0.2456
     55  N          7.6910    6.6550   17.1310 N.am  259  ASP259     -0.1971
     56  CA         7.7520    6.5630   18.5860 C.3   259  ASP259      0.1709
     57  C          6.9410    5.3800   19.0940 C.2   259  ASP259      0.2293
     58  O          5.7020    5.4500   19.1920 O.2   259  ASP259     -0.2864
     59  CB         7.1980    7.8460   19.1980 C.3   259  ASP259      0.1436
     60  CG         7.5160    7.9630   20.6710 C.2   259  ASP259      0.3671
     61  OD1        7.8100    6.9230   21.2950 O.co2 259  ASP259     -0.2456
     62  OD2        7.4610    9.0900   21.2040 O.co2 259  ASP259     -0.2456
     63  N          5.3730    4.0380   23.7140 N.3   262  TYR262     -0.1241
     64  CA         4.0570    3.9490   24.3390 C.3   262  TYR262      0.1605
     65  C          3.6290    2.4840   24.3400 C.2   262  TYR262      0.2264
     66  O          3.1810    1.9590   25.3590 O.2   262  TYR262     -0.2867
     67  CB         3.0470    4.8310   23.5940 C.3   262  TYR262      0.0534
     68  CG         3.3870    6.3030   23.7040 C.ar  262  TYR262     -0.0201
     69  CD1        3.9900    6.9840   22.6550 C.ar  262  TYR262     -0.0009
     70  CD2        3.1630    6.9950   24.8920 C.ar  262  TYR262     -0.0009
     71  CE1        4.3630    8.3290   22.7780 C.ar  262  TYR262      0.0417
     72  CE2        3.5370    8.3230   25.0320 C.ar  262  TYR262      0.0417
     73  CZ         4.1340    8.9860   23.9780 C.ar  262  TYR262      0.1957
     74  OH         4.5000   10.3050   24.1220 O.3   262  TYR262     -0.2866
     75  N         -2.1690   16.5550   16.0850 N.3   308  PHE308     -0.1241
     76  CA        -1.6330   17.5740   15.1980 C.3   308  PHE308      0.1605
     77  C         -2.1570   17.3930   13.7800 C.2   308  PHE308      0.2264
     78  O         -2.8530   16.4170   13.4890 O.2   308  PHE308     -0.2867
     79  CB        -0.0970   17.6840   15.2890 C.3   308  PHE308      0.0534
     80  CG         0.6650   16.7160   14.4450 C.ar  308  PHE308     -0.0203
     81  CD1        1.7670   17.1640   13.7200 C.ar  308  PHE308     -0.0042
     82  CD2        0.3420   15.3650   14.4130 C.ar  308  PHE308     -0.0042
     83  CE1        2.5410   16.2840   12.9720 C.ar  308  PHE308     -0.0003
     84  CE2        1.1160   14.4710   13.6660 C.ar  308  PHE308     -0.0003
     85  CZ         2.2160   14.9350   12.9460 C.ar  308  PHE308     -0.0000
     86  N         -1.1490   16.3840   10.7750 N.3   310  TRP310     -0.1241
     87  CA        -0.9320   15.2090    9.9320 C.3   310  TRP310      0.1605
     88  C         -1.4570   13.9020   10.5250 C.2   310  TRP310      0.2264
     89  O         -1.1330   13.5460   11.6660 O.2   310  TRP310     -0.2867
     90  CB         0.5570   15.0490    9.6300 C.3   310  TRP310      0.0550
     91  CG         1.1330   16.2060    8.8970 C.ar  310  TRP310      0.0003
     92  CD1        1.6640   17.3440    9.4350 C.ar  310  TRP310      0.0946
     93  CD2        1.2360   16.3450    7.4780 C.ar  310  TRP310      0.0152
     94  NE1        2.0940   18.1860    8.4340 N.ar  310  TRP310     -0.2442
     95  CE2        1.8450   17.5940    7.2230 C.ar  310  TRP310      0.0810
     96  CE3        0.8770   15.5320    6.3940 C.ar  310  TRP310      0.0012
     97  CZ2        2.1010   18.0510    5.9240 C.ar  310  TRP310      0.0191
     98  CZ3        1.1330   15.9870    5.1040 C.ar  310  TRP310      0.0001
     99  CH2        1.7390   17.2340    4.8820 C.ar  310  TRP310      0.0015
    100  N         -5.1040    8.8400   12.3290 N.3   314  ARG314     -0.1231
    101  CA        -4.0750    7.8360   12.5620 C.3   314  ARG314      0.1694
    102  C         -3.6950    7.8620   14.0440 C.2   314  ARG314      0.2592
    103  O         -3.6580    6.8210   14.7100 O.2   314  ARG314     -0.2718
    104  CB        -2.8510    8.1570   11.6780 C.3   314  ARG314      0.0321
    105  CG        -1.5340    7.4400   12.0250 C.3   314  ARG314      0.0489
    106  CD        -0.6470    8.3200   12.8930 C.3   314  ARG314      0.2205
    107  NE        -0.4370    9.6690   12.3490 N.pl3 314  ARG314     -0.0865
    108  CZ         0.5380   10.0190   11.5110 C.cat 314  ARG314      0.5346
    109  NH1        1.4230    9.1200   11.0880 N.pl3 314  ARG314      0.1354
    110  NH2        0.6470   11.2880   11.1150 N.pl3 314  ARG314      0.1354
    111  N         -3.4320    9.0530   14.5760 N.am  315  HIS315     -0.1976
    112  CA        -3.0490    9.1480   15.9840 C.3   315  HIS315      0.1656
    113  C         -4.1620    8.8060   16.9490 C.2   315  HIS315      0.2291
    114  O         -3.9420    8.0780   17.9240 O.2   315  HIS315     -0.2864
    115  CB        -2.5080   10.5410   16.3130 C.3   315  HIS315      0.0771
    116  CG        -1.1080   10.7670   15.8310 C.ar  315  HIS315      0.0820
    117  ND1       -0.0390   10.0280   16.2870 N.ar  315  HIS315     -0.2267
    118  CD2       -0.6070   11.6340   14.9200 C.ar  315  HIS315      0.1154
    119  CE1        1.0640   10.4260   15.6760 C.ar  315  HIS315      0.1986
    120  NE2        0.7470   11.3990   14.8420 N.ar  315  HIS315     -0.2212
@<TRIPOS>BOND
     1    99    98   ar
     2    99    97   ar
     3    98    96   ar
     4    97    95   ar
     5    96    93   ar
     6    95    93   ar
     7    95    94   ar
     8    93    91   ar
     9    94    92   ar
    10    91    92   ar
    11    91    90    1
    12    90    87    1
    13    87    88    1
    14    87    86    1
    15    88    89    2
    16    44    46   ar
    17    44    42   ar
    18    46    45   ar
    19    41    42   ar
    20    41    39   ar
    21    42    40   ar
    22   109   108    1
    23   110   108    1
    24    45    43   ar
    25    39    38   ar
    26    40    43   ar
    27    40    38   ar
    28    38    37    1
    29   108   107    2
    30   104   105    1
    31   104   101    1
    32    37    34    1
    33   105   106    1
    34   100   101    1
    35   107   106    1
    36   101   102    1
    37    85    83   ar
    38    85    84   ar
    39    83    81   ar
    40    34    35    1
    41    34    33    1
    42    78    77    2
    43    84    82   ar
    44    81    80   ar
    45    77    76    1
    46    36    35    2
    47    35    47   am
    48   102   111   am
    49   102   103    2
    50    33    29   am
    51    82    80   ar
    52    47    48    1
    53    80    79    1
    54    53    52   ar
    55    51    52    1
    56    51    48    1
    57   111   112    1
    58    52    54   ar
    59     1     2    1
    60   120   118   ar
    61   120   119   ar
    62   118   116   ar
    63    48    49    1
    64    76    79    1
    65    76    75    1
    66    29    28    1
    67    29    30    2
    68    31    28    1
    69    31    32    1
    70   119   117   ar
    71     2     5    1
    72     2     3    1
    73   116   117   ar
    74   116   115    1
    75    28    27    1
    76   112   115    1
    77   112   113    1
    78     5     6    1
    79    49    50    2
    80    49    55   am
    81    24    26   ar
    82    24    22   ar
    83   113   114    2
    84    10     9    2
    85     7     3   am
    86     7     8    1
    87     3     4    2
    88    55    56    1
    89    26    25   ar
    90    21    22   ar
    91    21    19   ar
    92    22    20   ar
    93     9     8    1
    94     8    11    1
    95    56    57    1
    96    56    59    1
    97    12    11    1
    98    19    18   ar
    99    25    23   ar
   100    57    58    2
   101    20    23   ar
   102    20    18   ar
   103    59    60    1
   104    18    17    1
   105    60    62   ar
   106    60    61   ar
   107    17    14    1
   108    15    14    1
   109    15    16    2
   110    14    13    1
   111    69    71   ar
   112    69    68   ar
   113    71    73   ar
   114    67    68    1
   115    67    64    1
   116    68    70   ar
   117    63    64    1
   118    73    74    1
   119    73    72   ar
   120    64    65    1
   121    65    66    2
   122    70    72   ar
