@<TRIPOS>MOLECULE
tmp/1ga2A01.pdb
 131 127 0 0 0
SMALL
GASTEIGER

@<TRIPOS>ATOM
      1  N         -6.7200   15.8900   59.2700 N.3    53  ALA53      -0.1245
      2  CA        -5.9300   15.1450   58.2980 C.3    53  ALA53       0.1562
      3  C         -6.5130   15.2760   56.9110 C.2    53  ALA53       0.2260
      4  O         -6.5560   16.3730   56.3580 O.2    53  ALA53      -0.2867
      5  CB        -5.8850   13.6740   58.7290 C.3    53  ALA53       0.0290
      6  N         -9.4610   14.6900   56.4240 N.3    55  ASP55      -0.1239
      7  CA       -10.8630   14.9150   56.7670 C.3    55  ASP55       0.1674
      8  C        -11.1320   16.3400   57.2370 C.2    55  ASP55       0.2266
      9  O        -10.2740   17.2150   57.1100 O.2    55  ASP55      -0.2867
     10  CB       -11.2630   13.9190   57.8620 C.3    55  ASP55       0.1410
     11  CG       -10.4450   14.0940   59.1290 C.2    55  ASP55       0.3668
     12  OD1       -9.3760   14.7440   59.0750 O.co2  55  ASP55      -0.2456
     13  OD2      -10.8640   13.5720   60.1780 O.co2  55  ASP55      -0.2456
     14  N        -16.5070   11.5430   57.9160 N.3   122  HIS122     -0.1226
     15  CA       -15.8370   10.5980   57.0230 C.3   122  HIS122      0.1752
     16  C        -16.7410    9.8680   56.0310 C.2   122  HIS122      0.2596
     17  O        -16.2530    9.2130   55.1060 O.2   122  HIS122     -0.2718
     18  CB       -15.0740    9.5810   57.8630 C.3   122  HIS122      0.0759
     19  CG       -13.9990   10.1860   58.7100 C.ar  122  HIS122      0.0818
     20  ND1      -13.2200    9.4360   59.5640 N.ar  122  HIS122     -0.2268
     21  CD2      -13.5580   11.4620   58.8190 C.ar  122  HIS122      0.1154
     22  CE1      -12.3420   10.2240   60.1620 C.ar  122  HIS122      0.1986
     23  NE2      -12.5270   11.4590   59.7300 N.ar  122  HIS122     -0.2212
     24  N        -18.0470    9.9880   56.2210 N.am  123  SER123     -0.1952
     25  CA       -19.0040    9.3290   55.3400 C.3   123  SER123      0.1924
     26  C        -19.2080   10.0910   54.0280 C.2   123  SER123      0.2314
     27  O        -19.8730    9.6010   53.1170 O.2   123  SER123     -0.2863
     28  CB       -20.3410    9.1830   56.0630 C.3   123  SER123      0.2116
     29  OG       -20.9420   10.4490   56.2730 O.3   123  SER123     -0.2180
     30  N        -17.2260   12.3690   50.8690 N.3   125  TRP125     -0.1241
     31  CA       -15.9540   12.6920   50.2270 C.3   125  TRP125      0.1605
     32  C        -16.0750   13.9330   49.3420 C.2   125  TRP125      0.2264
     33  O        -16.4620   13.8390   48.1760 O.2   125  TRP125     -0.2867
     34  CB       -15.4600   11.5060   49.3890 C.3   125  TRP125      0.0550
     35  CG       -14.0310   11.6630   48.9600 C.ar  125  TRP125      0.0003
     36  CD1      -13.5610   12.2720   47.8220 C.ar  125  TRP125      0.0946
     37  CD2      -12.8810   11.3080   49.7250 C.ar  125  TRP125      0.0152
     38  NE1      -12.1880   12.3230   47.8430 N.ar  125  TRP125     -0.2442
     39  CE2      -11.7440   11.7410   49.0040 C.ar  125  TRP125      0.0810
     40  CE3      -12.6980   10.6770   50.9620 C.ar  125  TRP125      0.0012
     41  CZ2      -10.4470   11.5540   49.4770 C.ar  125  TRP125      0.0191
     42  CZ3      -11.4100   10.4930   51.4310 C.ar  125  TRP125      0.0001
     43  CH2      -10.3010   10.9330   50.6930 C.ar  125  TRP125      0.0015
     44  N        -11.9800    6.2150   68.7410 N.3   200  GLY200     -0.1210
     45  CA       -11.7420    5.5680   67.4660 C.3   200  GLY200      0.1956
     46  C        -10.7630    6.3510   66.6080 C.2   200  GLY200      0.2611
     47  O        -10.2320    5.8260   65.6290 O.2   200  GLY200     -0.2717
     48  N        -10.5200    7.6080   66.9740 N.am  201  TYR201     -0.1976
     49  CA        -9.6090    8.4530   66.2160 C.3   201  TYR201      0.1639
     50  C         -8.4440    8.9240   67.0530 C.2   201  TYR201      0.2290
     51  O         -7.2880    8.6570   66.7190 O.2   201  TYR201     -0.2864
     52  CB       -10.3550    9.6600   65.6380 C.3   201  TYR201      0.0560
     53  CG       -11.5810    9.2240   64.8760 C.ar  201  TYR201     -0.0198
     54  CD1      -12.8470    9.2910   65.4530 C.ar  201  TYR201     -0.0009
     55  CD2      -11.4610    8.6400   63.6130 C.ar  201  TYR201     -0.0009
     56  CE1      -13.9690    8.7760   64.7900 C.ar  201  TYR201      0.0417
     57  CE2      -12.5710    8.1260   62.9530 C.ar  201  TYR201      0.0417
     58  CZ       -13.8160    8.1920   63.5450 C.ar  201  TYR201      0.1957
     59  OH       -14.9070    7.6540   62.9000 O.3   201  TYR201     -0.2866
     60  N          1.3360    2.7840   60.7330 N.3   308  TRP308     -0.1241
     61  CA         0.6780    4.0600   60.4410 C.3   308  TRP308      0.1605
     62  C          1.6000    5.2440   60.6730 C.2   308  TRP308      0.2264
     63  O          2.1490    5.3930   61.7640 O.2   308  TRP308     -0.2867
     64  CB        -0.5470    4.2570   61.3310 C.3   308  TRP308      0.0550
     65  CG        -1.6440    3.2660   61.1780 C.ar  308  TRP308      0.0003
     66  CD1       -1.6150    1.9470   61.5280 C.ar  308  TRP308      0.0946
     67  CD2       -2.9850    3.5410   60.7490 C.ar  308  TRP308      0.0152
     68  NE1       -2.8620    1.3850   61.3570 N.ar  308  TRP308     -0.2442
     69  CE2       -3.7200    2.3420   60.8780 C.ar  308  TRP308      0.0810
     70  CE3       -3.6380    4.6890   60.2730 C.ar  308  TRP308      0.0012
     71  CZ2       -5.0840    2.2570   60.5520 C.ar  308  TRP308      0.0191
     72  CZ3       -4.9950    4.6080   59.9510 C.ar  308  TRP308      0.0001
     73  CH2       -5.7010    3.4000   60.0920 C.ar  308  TRP308      0.0015
     74  N         -4.4120   10.8260   50.5730 N.3   370  HIS370     -0.1241
     75  CA        -5.7820   10.6620   51.0470 C.3   370  HIS370      0.1621
     76  C         -6.1920   11.9880   51.6930 C.2   370  HIS370      0.2264
     77  O         -5.9790   12.2070   52.8890 O.2   370  HIS370     -0.2867
     78  CB        -5.8310    9.5320   52.0720 C.3   370  HIS370      0.0745
     79  CG        -7.2160    9.1720   52.5210 C.ar  370  HIS370      0.0817
     80  ND1       -8.0010    8.2690   51.8450 N.ar  370  HIS370     -0.2268
     81  CD2       -7.9390    9.5860   53.5880 C.ar  370  HIS370      0.1154
     82  CE1       -9.1570    8.1360   52.4800 C.ar  370  HIS370      0.1986
     83  NE2       -9.1430    8.9220   53.5370 N.ar  370  HIS370     -0.2212
     84  N         -9.4800   14.9140   51.1630 N.3   372  ARG372     -0.1245
     85  CA       -10.6980   15.3370   50.4790 C.3   372  ARG372      0.1563
     86  C        -10.6350   16.6450   49.7150 C.2   372  ARG372      0.2260
     87  O        -11.0110   16.7020   48.5390 O.2   372  ARG372     -0.2867
     88  CB       -11.8580   15.4230   51.4790 C.3   372  ARG372      0.0307
     89  CG       -12.3340   14.0660   51.9890 C.3   372  ARG372      0.0489
     90  CD       -13.2910   14.1810   53.1740 C.3   372  ARG372      0.2205
     91  NE       -13.7470   12.8570   53.6050 N.pl3 372  ARG372     -0.0865
     92  CZ       -12.9920   11.9620   54.2430 C.cat 372  ARG372      0.5346
     93  NH1      -11.7250   12.2270   54.5510 N.pl3 372  ARG372      0.1354
     94  NH2      -13.5040   10.7800   54.5580 N.pl3 372  ARG372      0.1354
     95  N        -14.2610    9.1000   45.7810 N.3   382  MET382     -0.1245
     96  CA       -12.8150    9.1160   45.9430 C.3   382  MET382      0.1570
     97  C        -12.1340    8.8080   44.6050 C.2   382  MET382      0.2261
     98  O        -10.9800    9.1700   44.3870 O.2   382  MET382     -0.2867
     99  CB       -12.4210    8.0440   46.9590 C.3   382  MET382      0.0387
    100  CG       -11.0680    8.2120   47.5820 C.3   382  MET382      0.0595
    101  SD       -10.7870    6.9250   48.8230 S.3   382  MET382     -0.1393
    102  CE       -12.3330    6.8670   49.6260 C.3   382  MET382      0.0692
    103  N         -6.9690    5.7840   48.2130 N.3   411  ASN411     -0.1240
    104  CA        -7.6780    4.9820   49.2140 C.3   411  ASN411      0.1653
    105  C         -6.7980    4.4140   50.3180 C.2   411  ASN411      0.2266
    106  O         -7.3060    3.8790   51.3080 O.2   411  ASN411     -0.2867
    107  CB        -8.4140    3.8370   48.5350 C.3   411  ASN411      0.1155
    108  CG        -7.5080    3.0130   47.6570 C.2   411  ASN411      0.2627
    109  OD1       -6.8410    3.5430   46.7690 O.2   411  ASN411     -0.2716
    110  ND2       -7.4820    1.7070   47.8910 N.am  411  ASN411     -0.0877
    111  N         -5.2430    5.0530   53.2250 N.3   413  TYR413     -0.1241
    112  CA        -5.0990    6.0000   54.3240 C.3   413  TYR413      0.1605
    113  C         -4.1190    5.5640   55.4060 C.2   413  TYR413      0.2264
    114  O         -3.7140    6.3750   56.2460 O.2   413  TYR413     -0.2867
    115  CB        -6.4670    6.3390   54.9340 C.3   413  TYR413      0.0534
    116  CG        -7.2820    5.1600   55.4110 C.ar  413  TYR413     -0.0201
    117  CD1       -6.9220    4.4460   56.5550 C.ar  413  TYR413     -0.0009
    118  CD2       -8.4460    4.7840   54.7370 C.ar  413  TYR413     -0.0009
    119  CE1       -7.7070    3.3810   57.0200 C.ar  413  TYR413      0.0417
    120  CE2       -9.2330    3.7280   55.1890 C.ar  413  TYR413      0.0417
    121  CZ        -8.8600    3.0290   56.3290 C.ar  413  TYR413      0.1957
    122  OH        -9.6330    1.9750   56.7590 O.3   413  TYR413     -0.2866
    123  N         -2.0650    8.8430   53.9470 N.3   417  GLU417     -0.1245
    124  CA        -2.8720    9.9810   54.3710 C.3   417  GLU417      0.1567
    125  C         -1.8660   11.0590   54.7810 C.2   417  GLU417      0.2260
    126  O         -0.6640   10.8030   54.8670 O.2   417  GLU417     -0.2867
    127  CB        -3.8090    9.6490   55.5480 C.3   417  GLU417      0.0388
    128  CG        -4.8030   10.8010   55.8170 C.3   417  GLU417      0.1160
    129  CD        -6.0280   10.4060   56.6410 C.2   417  GLU417      0.3649
    130  OE1       -6.1540    9.2270   57.0270 O.co2 417  GLU417     -0.2457
    131  OE2       -6.8770   11.2940   56.8920 O.co2 417  GLU417     -0.2457
@<TRIPOS>BOND
     1    98    97    2
     2    97    96    1
     3    95    96    1
     4    96    99    1
     5   109   108    2
     6    99   100    1
     7   100   101    1
     8   108   110   am
     9   108   107    1
    10    36    38   ar
    11    36    35   ar
    12    38    39   ar
    13    33    32    2
    14   103   104    1
    15   107   104    1
    16    87    86    2
    17   101   102    1
    18    35    34    1
    19    35    37   ar
    20    39    41   ar
    21    39    37   ar
    22   104   105    1
    23    32    31    1
    24    34    31    1
    25    41    43   ar
    26    86    85    1
    27    37    40   ar
    28    31    30    1
    29   105   106    2
    30    85    84    1
    31    85    88    1
    32    74    75    1
    33    43    42   ar
    34    40    42   ar
    35    75    76    1
    36    75    78    1
    37    88    89    1
    38    76    77    2
    39    80    82   ar
    40    80    79   ar
    41    89    90    1
    42    78    79    1
    43    82    83   ar
    44    79    81   ar
    45    27    26    2
    46    90    91    1
    47   111   112    1
    48    83    81   ar
    49    91    92    2
    50   123   124    1
    51    26    25    1
    52    92    93    1
    53    92    94    1
    54   112   115    1
    55   112   113    1
    56   124   125    1
    57   124   127    1
    58   118   120   ar
    59   118   116   ar
    60   125   126    2
    61   115   116    1
    62    17    16    2
    63   120   121   ar
    64    25    28    1
    65    25    24    1
    66   113   114    2
    67   116   117   ar
    68   127   128    1
    69   128   129    1
    70    16    24   am
    71    16    15    1
    72    28    29    1
    73   121   122    1
    74   121   119   ar
    75     4     3    2
    76     6     7    1
    77   117   119   ar
    78   129   131   ar
    79   129   130   ar
    80     7     8    1
    81     7    10    1
    82     3     2    1
    83    15    18    1
    84    15    14    1
    85     9     8    2
    86    10    11    1
    87    18    19    1
    88     2     5    1
    89     2     1    1
    90    19    21   ar
    91    19    20   ar
    92    21    23   ar
    93    12    11   ar
    94    11    13   ar
    95    20    22   ar
    96    23    22   ar
    97    72    73   ar
    98    72    70   ar
    99    73    71   ar
   100    70    67   ar
   101    61    62    1
   102    61    60    1
   103    61    64    1
   104    71    69   ar
   105    62    63    2
   106    67    69   ar
   107    67    65   ar
   108    69    68   ar
   109    65    64    1
   110    65    66   ar
   111    68    66   ar
   112    59    58    1
   113    57    58   ar
   114    57    55   ar
   115    58    56   ar
   116    55    53   ar
   117    56    54   ar
   118    53    54   ar
   119    53    52    1
   120    47    46    2
   121    52    49    1
   122    49    48    1
   123    49    50    1
   124    46    48   am
   125    46    45    1
   126    51    50    2
   127    45    44    1
