@<TRIPOS>MOLECULE
tmp/1ga2A00.pdb
 168 171 0 0 0
SMALL
GASTEIGER

@<TRIPOS>ATOM
      1  N        -11.9800    6.2150   68.7410 N.3   200  GLY200     -0.1210
      2  CA       -11.7420    5.5680   67.4660 C.3   200  GLY200      0.1956
      3  C        -10.7630    6.3510   66.6080 C.2   200  GLY200      0.2612
      4  O        -10.2320    5.8260   65.6290 O.2   200  GLY200     -0.2717
      5  N        -10.5200    7.6080   66.9740 N.am  201  TYR201     -0.1962
      6  CA        -9.6090    8.4530   66.2160 C.3   201  TYR201      0.1771
      7  C         -8.4440    8.9240   67.0530 C.2   201  TYR201      0.2619
      8  O         -7.2880    8.6570   66.7190 O.2   201  TYR201     -0.2715
      9  CB       -10.3550    9.6600   65.6380 C.3   201  TYR201      0.0574
     10  CG       -11.5810    9.2240   64.8760 C.ar  201  TYR201     -0.0198
     11  CD1      -12.8470    9.2910   65.4530 C.ar  201  TYR201     -0.0009
     12  CD2      -11.4610    8.6400   63.6130 C.ar  201  TYR201     -0.0009
     13  CE1      -13.9690    8.7760   64.7900 C.ar  201  TYR201      0.0417
     14  CE2      -12.5710    8.1260   62.9530 C.ar  201  TYR201      0.0417
     15  CZ       -13.8160    8.1920   63.5450 C.ar  201  TYR201      0.1957
     16  OH       -14.9070    7.6540   62.9000 O.3   201  TYR201     -0.2866
     17  N         -8.7460    9.6290   68.1390 N.am  202  TYR202     -0.1974
     18  CA        -7.6950   10.1330   69.0080 C.3   202  TYR202      0.1639
     19  C         -7.9530    9.8910   70.4870 C.2   202  TYR202      0.2290
     20  O         -7.7330   10.7780   71.3100 O.2   202  TYR202     -0.2864
     21  CB        -7.4690   11.6300   68.7490 C.3   202  TYR202      0.0560
     22  CG        -6.8870   11.8880   67.3780 C.ar  202  TYR202     -0.0198
     23  CD1       -5.5470   11.6330   67.1220 C.ar  202  TYR202     -0.0009
     24  CD2       -7.6970   12.2980   66.3140 C.ar  202  TYR202     -0.0009
     25  CE1       -5.0170   11.7630   65.8460 C.ar  202  TYR202      0.0417
     26  CE2       -7.1740   12.4310   65.0260 C.ar  202  TYR202      0.0417
     27  CZ        -5.8350   12.1560   64.8030 C.ar  202  TYR202      0.1957
     28  OH        -5.3050   12.2480   63.5360 O.3   202  TYR202     -0.2866
     29  N         -4.3540    7.5680   75.6450 N.3   205  SER205     -0.1202
     30  CA        -3.8870    6.4530   76.4650 C.3   205  SER205      0.2020
     31  C         -3.0140    6.9500   77.6140 C.2   205  SER205      0.2619
     32  O         -2.4970    6.1540   78.3990 O.2   205  SER205     -0.2717
     33  CB        -3.1020    5.4290   75.6280 C.3   205  SER205      0.2103
     34  OG        -1.9030    5.9750   75.1130 O.3   205  SER205     -0.2182
     35  N         -2.8820    8.2690   77.7410 N.am  206  SER206     -0.1951
     36  CA        -2.0420    8.8320   78.8050 C.3   206  SER206      0.1924
     37  C         -2.2580   10.3260   78.9660 C.2   206  SER206      0.2314
     38  O         -2.4920   11.0280   77.9810 O.2   206  SER206     -0.2863
     39  CB        -0.5680    8.6130   78.4660 C.3   206  SER206      0.2116
     40  OG        -0.2580    9.2220   77.2100 O.3   206  SER206     -0.2180
     41  N          9.1320    4.0590   72.1580 N.3   251  TRP251     -0.1241
     42  CA         8.2010    4.6580   71.2080 C.3   251  TRP251      0.1605
     43  C          8.8240    5.9900   70.7910 C.2   251  TRP251      0.2264
     44  O         10.0490    6.1340   70.7610 O.2   251  TRP251     -0.2867
     45  CB         6.8260    4.8740   71.8480 C.3   251  TRP251      0.0550
     46  CG         5.7080    4.8430   70.8360 C.ar  251  TRP251      0.0003
     47  CD1        4.8590    5.8640   70.5050 C.ar  251  TRP251      0.0946
     48  CD2        5.3370    3.7310   70.0160 C.ar  251  TRP251      0.0152
     49  NE1        3.9800    5.4490   69.5260 N.ar  251  TRP251     -0.2442
     50  CE2        4.2540    4.1450   69.2080 C.ar  251  TRP251      0.0810
     51  CE3        5.8200    2.4190   69.8840 C.ar  251  TRP251      0.0012
     52  CZ2        3.6410    3.2910   68.2790 C.ar  251  TRP251      0.0191
     53  CZ3        5.2100    1.5680   68.9590 C.ar  251  TRP251      0.0001
     54  CH2        4.1270    2.0150   68.1680 C.ar  251  TRP251      0.0015
     55  N          4.8250   11.9390   70.0380 N.3   254  CYS254     -0.1221
     56  CA         3.6650   11.9740   69.1470 C.3   254  CYS254      0.1808
     57  C          2.4720   12.5690   69.8820 C.2   254  CYS254      0.2601
     58  O          2.5420   12.8510   71.0790 O.2   254  CYS254     -0.2717
     59  CB         3.3300   10.5710   68.6320 C.3   254  CYS254      0.0970
     60  SG         2.7950    9.4280   69.9150 S.3   254  CYS254     -0.0800
     61  N          1.3730   12.7720   69.1650 N.am  255  TRP255     -0.1962
     62  CA         0.1940   13.3780   69.7710 C.3   255  TRP255      0.1771
     63  C         -0.3270   12.7030   71.0420 C.2   255  TRP255      0.2620
     64  O         -0.8960   13.3710   71.9180 O.2   255  TRP255     -0.2715
     65  CB        -0.9440   13.4750   68.7300 C.3   255  TRP255      0.0590
     66  CG        -1.4650   12.1450   68.2600 C.ar  255  TRP255      0.0006
     67  CD1       -1.0370   11.4240   67.1680 C.ar  255  TRP255      0.0946
     68  CD2       -2.4310   11.3230   68.9280 C.ar  255  TRP255      0.0152
     69  NE1       -1.6720   10.1990   67.1310 N.ar  255  TRP255     -0.2442
     70  CE2       -2.5280   10.1080   68.2000 C.ar  255  TRP255      0.0810
     71  CE3       -3.2170   11.4850   70.0770 C.ar  255  TRP255      0.0012
     72  CZ2       -3.3790    9.0630   68.5890 C.ar  255  TRP255      0.0191
     73  CZ3       -4.0680   10.4390   70.4630 C.ar  255  TRP255      0.0001
     74  CH2       -4.1360    9.2460   69.7200 C.ar  255  TRP255      0.0015
     75  N         -0.1060   11.3980   71.1660 N.am  256  ASP256     -0.1957
     76  CA        -0.6160   10.6350   72.3070 C.3   256  ASP256      0.1840
     77  C          0.4030   10.4810   73.4220 C.2   256  ASP256      0.2622
     78  O          0.0520   10.1280   74.5480 O.2   256  ASP256     -0.2715
     79  CB        -1.0270    9.2330   71.8190 C.3   256  ASP256      0.1450
     80  CG        -1.8760    8.4610   72.8280 C.2   256  ASP256      0.3671
     81  OD1       -1.8160    7.2100   72.8110 O.co2 256  ASP256     -0.2456
     82  OD2       -2.6220    9.0740   73.6110 O.co2 256  ASP256     -0.2456
     83  N          1.6650   10.7300   73.0950 N.am  257  ASP257     -0.1971
     84  CA         2.7370   10.5600   74.0550 C.3   257  ASP257      0.1709
     85  C          3.7740   11.6570   73.8920 C.2   257  ASP257      0.2293
     86  O          4.5920   11.6370   72.9580 O.2   257  ASP257     -0.2864
     87  CB         3.3910    9.1980   73.8370 C.3   257  ASP257      0.1436
     88  CG         4.3270    8.8160   74.9630 C.2   257  ASP257      0.3671
     89  OD1        4.8320    9.7330   75.6400 O.co2 257  ASP257     -0.2456
     90  OD2        4.5630    7.6020   75.1630 O.co2 257  ASP257     -0.2456
     91  N          8.4510   12.2640   75.8360 N.3   260  TYR260     -0.1241
     92  CA         9.7540   12.3430   75.1960 C.3   260  TYR260      0.1605
     93  C         10.1870   13.8040   75.1200 C.2   260  TYR260      0.2264
     94  O         11.3000   14.1450   75.4950 O.2   260  TYR260     -0.2867
     95  CB         9.6860   11.7000   73.8000 C.3   260  TYR260      0.0534
     96  CG         9.4450   10.2030   73.8900 C.ar  260  TYR260     -0.0201
     97  CD1        8.1720    9.6570   73.6760 C.ar  260  TYR260     -0.0009
     98  CD2       10.4790    9.3420   74.2580 C.ar  260  TYR260     -0.0009
     99  CE1        7.9390    8.2830   73.8260 C.ar  260  TYR260      0.0417
    100  CE2       10.2590    7.9780   74.4160 C.ar  260  TYR260      0.0417
    101  CZ         8.9930    7.4490   74.1970 C.ar  260  TYR260      0.1957
    102  OH         8.7940    6.0880   74.3330 O.3   260  TYR260     -0.2866
    103  N          6.0950    2.0090   63.3000 N.3   306  PHE306     -0.1241
    104  CA         4.7240    1.5280   63.2700 C.3   306  PHE306      0.1605
    105  C          4.1960    1.6060   61.8370 C.2   306  PHE306      0.2264
    106  O          4.6990    2.3780   61.0260 O.2   306  PHE306     -0.2867
    107  CB         3.9620    2.4640   64.2320 C.3   306  PHE306      0.0534
    108  CG         2.5260    2.1090   64.4780 C.ar  306  PHE306     -0.0203
    109  CD1        2.1620    0.8570   64.9350 C.ar  306  PHE306     -0.0042
    110  CD2        1.5400    3.0830   64.3370 C.ar  306  PHE306     -0.0042
    111  CE1        0.8260    0.5730   65.2590 C.ar  306  PHE306     -0.0003
    112  CE2        0.2050    2.8140   64.6560 C.ar  306  PHE306     -0.0003
    113  CZ        -0.1520    1.5550   65.1200 C.ar  306  PHE306     -0.0000
    114  N          1.3360    2.7840   60.7330 N.3   308  TRP308     -0.1241
    115  CA         0.6780    4.0600   60.4410 C.3   308  TRP308      0.1605
    116  C          1.6000    5.2440   60.6730 C.2   308  TRP308      0.2264
    117  O          2.1490    5.3930   61.7640 O.2   308  TRP308     -0.2867
    118  CB        -0.5470    4.2570   61.3310 C.3   308  TRP308      0.0550
    119  CG        -1.6440    3.2660   61.1780 C.ar  308  TRP308      0.0003
    120  CD1       -1.6150    1.9470   61.5280 C.ar  308  TRP308      0.0946
    121  CD2       -2.9850    3.5410   60.7490 C.ar  308  TRP308      0.0152
    122  NE1       -2.8620    1.3850   61.3570 N.ar  308  TRP308     -0.2442
    123  CE2       -3.7200    2.3420   60.8780 C.ar  308  TRP308      0.0810
    124  CE3       -3.6380    4.6890   60.2730 C.ar  308  TRP308      0.0012
    125  CZ2       -5.0840    2.2570   60.5520 C.ar  308  TRP308      0.0191
    126  CZ3       -4.9950    4.6080   59.9510 C.ar  308  TRP308      0.0001
    127  CH2       -5.7010    3.4000   60.0920 C.ar  308  TRP308      0.0015
    128  N          6.0610   10.0540   59.8720 N.3   312  ARG312     -0.1231
    129  CA         5.6950   10.9700   60.9570 C.3   312  ARG312      0.1694
    130  C          6.5540   10.6660   62.1960 C.2   312  ARG312      0.2592
    131  O          7.1520   11.5660   62.8160 O.2   312  ARG312     -0.2718
    132  CB         4.1900   10.8000   61.2560 C.3   312  ARG312      0.0321
    133  CG         3.6660   11.3920   62.5780 C.3   312  ARG312      0.0489
    134  CD         3.5980   10.3390   63.6760 C.3   312  ARG312      0.2205
    135  NE         2.8740    9.1320   63.2620 N.pl3 312  ARG312     -0.0865
    136  CZ         1.5700    8.9100   63.4300 C.cat 312  ARG312      0.5346
    137  NH1        0.7820    9.8100   64.0110 N.pl3 312  ARG312      0.1354
    138  NH2        1.0500    7.7590   63.0330 N.pl3 312  ARG312      0.1354
    139  N          6.6570    9.3920   62.5460 N.am  313  HIS313     -0.1976
    140  CA         7.4410    9.0270   63.7200 C.3   313  HIS313      0.1656
    141  C          8.9300    9.2690   63.5460 C.2   313  HIS313      0.2291
    142  O          9.5800    9.8400   64.4280 O.2   313  HIS313     -0.2864
    143  CB         7.1860    7.5590   64.0940 C.3   313  HIS313      0.0771
    144  CG         5.8560    7.3330   64.7470 C.ar  313  HIS313      0.0820
    145  ND1        5.5100    7.9190   65.9440 N.ar  313  HIS313     -0.2267
    146  CD2        4.7910    6.5860   64.3710 C.ar  313  HIS313      0.1154
    147  CE1        4.2860    7.5470   66.2780 C.ar  313  HIS313      0.1986
    148  NE2        3.8280    6.7380   65.3430 N.ar  313  HIS313     -0.2212
    149  N         -0.3420   16.3940   62.6240 N.3   421  ASP421     -0.1225
    150  CA         0.7390   15.8430   63.4280 C.3   421  ASP421      0.1805
    151  C          1.8700   15.2430   62.6040 C.2   421  ASP421      0.2597
    152  O          3.0150   15.1940   63.0550 O.2   421  ASP421     -0.2718
    153  CB         0.1880   14.8190   64.4340 C.3   421  ASP421      0.1424
    154  CG        -0.0490   13.4640   63.8130 C.2   421  ASP421      0.3668
    155  OD1       -1.0730   13.2790   63.1170 O.co2 421  ASP421     -0.2456
    156  OD2        0.8160   12.5830   64.0160 O.co2 421  ASP421     -0.2456
    157  N          1.5700   14.8100   61.3840 N.am  422  TYR422     -0.1976
    158  CA         2.6070   14.2350   60.5310 C.3   422  TYR422      0.1639
    159  C          3.6740   15.2730   60.1720 C.2   422  TYR422      0.2290
    160  O          4.8610   14.9540   60.0710 O.2   422  TYR422     -0.2864
    161  CB         2.0030   13.7080   59.2230 C.3   422  TYR422      0.0560
    162  CG         1.2380   12.3910   59.2910 C.ar  422  TYR422     -0.0198
    163  CD1        0.7800   11.8610   60.5030 C.ar  422  TYR422     -0.0009
    164  CD2        0.9070   11.7140   58.1090 C.ar  422  TYR422     -0.0009
    165  CE1        0.0040   10.6810   60.5230 C.ar  422  TYR422      0.0417
    166  CE2        0.1450   10.5570   58.1230 C.ar  422  TYR422      0.0417
    167  CZ        -0.3060   10.0420   59.3230 C.ar  422  TYR422      0.1957
    168  OH        -1.0670    8.8860   59.3050 O.3   422  TYR422     -0.2866
@<TRIPOS>BOND
     1   164   166   ar
     2   164   162   ar
     3   166   167   ar
     4   161   162    1
     5   161   158    1
     6   162   163   ar
     7   168   167    1
     8   167   165   ar
     9   128   129    1
    10   126   127   ar
    11   126   124   ar
    12   160   159    2
    13   127   125   ar
    14   159   158    1
    15   124   121   ar
    16   115   116    1
    17   115   114    1
    18   115   118    1
    19   163   165   ar
    20   158   157    1
    21   125   123   ar
    22   116   117    2
    23   121   123   ar
    24   121   119   ar
    25   123   122   ar
    26   129   132    1
    27   129   130    1
    28   106   105    2
    29   119   118    1
    30   119   120   ar
    31   132   133    1
    32   122   120   ar
    33   157   151   am
    34   105   104    1
    35   130   139   am
    36   130   131    2
    37   139   140    1
    38   133   134    1
    39   151   152    2
    40   151   150    1
    41   149   150    1
    42    16    15    1
    43    14    15   ar
    44    14    12   ar
    45   138   136    1
    46   155   154   ar
    47   135   136    2
    48   135   134    1
    49   104   103    1
    50   104   107    1
    51   150   153    1
    52   136   137    1
    53    28    27    1
    54    15    13   ar
    55   141   140    1
    56   141   142    2
    57    12    10   ar
    58   140   143    1
    59   154   156   ar
    60   154   153    1
    61   143   144    1
    62   107   108    1
    63   110   108   ar
    64   110   112   ar
    65   146   144   ar
    66   146   148   ar
    67   108   109   ar
    68   112   113   ar
    69   144   145   ar
    70    13    11   ar
    71    27    26   ar
    72    27    25   ar
    73    10    11   ar
    74    10     9    1
    75   109   111   ar
    76    26    24   ar
    77   113   111   ar
    78   148   147   ar
    79     4     3    2
    80     9     6    1
    81    25    23   ar
    82   145   147   ar
    83     6     5    1
    84     6     7    1
    85    24    22   ar
    86     3     5   am
    87     3     2    1
    88     8     7    2
    89     7    17   am
    90    23    22   ar
    91    69    67   ar
    92    69    70   ar
    93    67    66   ar
    94    22    21    1
    95     2     1    1
    96    17    18    1
    97    54    52   ar
    98    54    53   ar
    99    70    72   ar
   100    70    68   ar
   101    66    65    1
   102    66    68   ar
   103    52    50   ar
   104    72    74   ar
   105    59    56    1
   106    59    60    1
   107    65    62    1
   108    21    18    1
   109    68    71   ar
   110    53    51   ar
   111    18    19    1
   112    56    57    1
   113    56    55    1
   114    61    62    1
   115    61    57   am
   116    50    49   ar
   117    50    48   ar
   118    49    47   ar
   119    74    73   ar
   120    62    63    1
   121    57    58    2
   122    51    48   ar
   123    48    46   ar
   124    71    73   ar
   125    19    20    2
   126    47    46   ar
   127    44    43    2
   128    43    42    1
   129    46    45    1
   130    63    75   am
   131    63    64    2
   132    75    76    1
   133    42    45    1
   134    42    41    1
   135    79    76    1
   136    79    80    1
   137    76    77    1
   138    81    80   ar
   139    80    82   ar
   140    86    85    2
   141    83    77   am
   142    83    84    1
   143    77    78    2
   144    97    99   ar
   145    97    96   ar
   146    95    96    1
   147    95    92    1
   148    99   101   ar
   149    87    84    1
   150    87    88    1
   151    96    98   ar
   152    85    84    1
   153   101   102    1
   154   101   100   ar
   155    98   100   ar
   156    88    90   ar
   157    88    89   ar
   158    34    33    1
   159    93    92    1
   160    93    94    2
   161    92    91    1
   162    33    30    1
   163    29    30    1
   164    30    31    1
   165    40    39    1
   166    31    35   am
   167    31    32    2
   168    35    36    1
   169    38    37    2
   170    39    36    1
   171    36    37    1
