@<TRIPOS>MOLECULE
tmp/1ga6A00.pdb
 98 92 0 0 0
SMALL
GASTEIGER

@<TRIPOS>ATOM
      1  N         21.2570   21.4620    6.5260 N.3    34  ILE34      -0.1245
      2  CA        20.2310   20.9450    5.5940 C.3    34  ILE34       0.1561
      3  C         18.9360   21.6220    6.0030 C.2    34  ILE34       0.2260
      4  O         18.4290   21.3830    7.1100 O.2    34  ILE34      -0.2867
      5  CB        20.1380   19.4380    5.6170 C.3    34  ILE34       0.0252
      6  CG1       21.5050   18.8040    5.1550 C.3    34  ILE34       0.0019
      7  CG2       18.9900   18.9550    4.7700 C.3    34  ILE34       0.0019
      8  CD1       21.6060   17.3620    5.2200 C.3    34  ILE34       0.0001
      9  N         19.2040   23.5310    0.1270 N.3   104  ASP104     -0.1225
     10  CA        17.8020   23.4080   -0.3510 C.3   104  ASP104      0.1805
     11  C         17.3360   21.9760   -0.1860 C.2   104  ASP104      0.2597
     12  O         17.9560   21.0670   -0.7160 O.2   104  ASP104     -0.2718
     13  CB        17.7610   23.8540   -1.7940 C.3   104  ASP104      0.1424
     14  CG        16.4460   23.7470   -2.4950 C.2   104  ASP104      0.3668
     15  OD1       15.4350   23.4000   -1.8360 O.co2 104  ASP104     -0.2456
     16  OD2       16.3890   23.9670   -3.7100 O.co2 104  ASP104     -0.2456
     17  N         16.2370   21.7540    0.5040 N.am  105  GLN105     -0.1979
     18  CA        15.7090   20.3890    0.7370 C.3   105  GLN105      0.1601
     19  C         14.9070   19.8230   -0.4110 C.2   105  GLN105      0.2287
     20  O         14.5370   18.6380   -0.3650 O.2   105  GLN105     -0.2864
     21  CB        14.8730   20.3810    2.0140 C.3   105  GLN105      0.0394
     22  CG        15.7110   20.6640    3.2490 C.3   105  GLN105      0.0908
     23  CD        14.9050   21.1120    4.4450 C.2   105  GLN105      0.2608
     24  OE1       14.8570   20.4530    5.4620 O.2   105  GLN105     -0.2717
     25  NE2       14.2730   22.3070    4.3050 N.am  105  GLN105     -0.0878
     26  N         18.5630   14.5240   -5.0870 N.3   109  GLY109     -0.1210
     27  CA        19.6270   13.7230   -4.5000 C.3   109  GLY109      0.1956
     28  C         20.4640   14.5030   -3.5090 C.2   109  GLY109      0.2611
     29  O         19.9500   15.1170   -2.5540 O.2   109  GLY109     -0.2717
     30  N         21.7790   14.5760   -3.7230 N.am  110  ASN110     -0.1974
     31  CA        22.6430   15.3340   -2.8310 C.3   110  ASN110      0.1688
     32  C         22.9930   16.7080   -3.3810 C.2   110  ASN110      0.2292
     33  O         23.8520   17.3750   -2.8760 O.2   110  ASN110     -0.2864
     34  CB        23.8970   14.5320   -2.5590 C.3   110  ASN110      0.1181
     35  CG        23.6470   13.2150   -1.8770 C.2   110  ASN110      0.2629
     36  OD1       24.1780   12.1550   -2.3260 O.2   110  ASN110     -0.2716
     37  ND2       22.8840   13.2300   -0.8440 N.am  110  ASN110     -0.0877
     38  N         22.9770   19.7460   -0.9170 N.3   113  LEU113     -0.1245
     39  CA        24.1320   19.7680   -0.0540 C.3   113  LEU113      0.1561
     40  C         25.3830   20.1830   -0.8120 C.2   113  LEU113      0.2260
     41  O         26.1720   21.0280   -0.3390 O.2   113  LEU113     -0.2867
     42  CB        24.2950   18.3890    0.5720 C.3   113  LEU113      0.0270
     43  CG        25.4810   18.2630    1.5290 C.3   113  LEU113      0.0019
     44  CD1       25.4240   19.2760    2.6790 C.3   113  LEU113      0.0001
     45  CD2       25.5820   16.8340    2.0270 C.3   113  LEU113      0.0001
     46  N         28.1000   16.1700    9.3360 N.3   133  LEU133     -0.1231
     47  CA        27.3080   15.3720    8.4420 C.3   133  LEU133      0.1693
     48  C         28.1740   14.2720    7.8540 C.2   133  LEU133      0.2593
     49  O         29.3820   14.4720    7.6510 O.2   133  LEU133     -0.2718
     50  CB        26.7670   16.2390    7.2650 C.3   133  LEU133      0.0284
     51  CG        25.8890   17.3980    7.6260 C.3   133  LEU133      0.0019
     52  CD1       25.5950   18.2520    6.4180 C.3   133  LEU133      0.0001
     53  CD2       24.5490   16.9250    8.2100 C.3   133  LEU133      0.0001
     54  N         27.5470   13.1770    7.4720 N.am  134  GLY134     -0.1942
     55  CA        28.3100   12.1180    6.8170 C.3   134  GLY134      0.2014
     56  C         27.4150   10.9640    6.3990 C.2   134  GLY134      0.2638
     57  O         26.3290   10.7750    6.9360 O.2   134  GLY134     -0.2714
     58  N         27.9300   10.2020    5.4330 N.am  135  TRP135     -0.1973
     59  CA        27.2920    8.9630    5.0430 C.3   135  TRP135      0.1640
     60  C         28.3210    8.1040    4.3140 C.2   135  TRP135      0.2290
     61  O         29.4240    8.5530    3.9650 O.2   135  TRP135     -0.2864
     62  CB        26.0790    9.1820    4.1590 C.3   135  TRP135      0.0576
     63  CG        26.2670    9.7050    2.7900 C.ar  135  TRP135      0.0006
     64  CD1       26.1130    8.9600    1.6550 C.ar  135  TRP135      0.0946
     65  CD2       26.5570   11.0430    2.3510 C.ar  135  TRP135      0.0152
     66  NE1       26.3310    9.7000    0.5460 N.ar  135  TRP135     -0.2442
     67  CE2       26.5930   10.9940    0.9320 C.ar  135  TRP135      0.0810
     68  CE3       26.8200   12.2660    2.9930 C.ar  135  TRP135      0.0012
     69  CZ2       26.8590   12.1300    0.1750 C.ar  135  TRP135      0.0191
     70  CZ3       27.0730   13.3840    2.1950 C.ar  135  TRP135      0.0001
     71  CH2       27.0910   13.3190    0.8080 C.ar  135  TRP135      0.0015
     72  N         28.5620    5.0240   -1.2330 N.3   139  ASP139     -0.1239
     73  CA        27.2820    5.5100   -1.7650 C.3   139  ASP139      0.1674
     74  C         27.5280    6.8640   -2.4670 C.2   139  ASP139      0.2266
     75  O         27.0600    7.1030   -3.5720 O.2   139  ASP139     -0.2867
     76  CB        26.2350    5.6220   -0.6880 C.3   139  ASP139      0.1410
     77  CG        25.7870    4.2850   -0.1120 C.2   139  ASP139      0.3668
     78  OD1       25.3000    4.2940    1.0370 O.co2 139  ASP139     -0.2456
     79  OD2       25.9030    3.2240   -0.7930 O.co2 139  ASP139     -0.2456
     80  N         27.1220    7.5350   -6.9590 N.3   143  ASP143     -0.1239
     81  CA        26.1900    8.4310   -7.5900 C.3   143  ASP143      0.1674
     82  C         26.8880    9.7320   -8.0450 C.2   143  ASP143      0.2266
     83  O         26.1820   10.6080   -8.5300 O.2   143  ASP143     -0.2867
     84  CB        24.9620    8.6840   -6.7330 C.3   143  ASP143      0.1410
     85  CG        25.2350    9.4590   -5.4810 C.2   143  ASP143      0.3668
     86  OD1       26.3070   10.0780   -5.3630 O.co2 143  ASP143     -0.2456
     87  OD2       24.3810    9.4850   -4.5670 O.co2 143  ASP143     -0.2456
     88  N         24.3300    2.0760    7.9690 N.3   178  ARG178     -0.1245
     89  CA        24.6180    3.1670    8.9040 C.3   178  ARG178      0.1563
     90  C         24.7750    2.6070   10.3270 C.2   178  ARG178      0.2260
     91  O         24.1170    3.0270   11.2790 O.2   178  ARG178     -0.2867
     92  CB        23.6440    4.3460    8.8120 C.3   178  ARG178      0.0307
     93  CG        24.1790    5.6270    9.3910 C.3   178  ARG178      0.0489
     94  CD        23.1700    6.7550    9.3020 C.3   178  ARG178      0.2205
     95  NE        23.8010    7.9610    9.7920 N.pl3 178  ARG178     -0.0865
     96  CZ        24.5060    8.8110    8.9810 C.cat 178  ARG178      0.5346
     97  NH1       24.5940    8.6380    7.6600 N.pl3 178  ARG178      0.1354
     98  NH2       25.0810    9.8510    9.5700 N.pl3 178  ARG178      0.1354
@<TRIPOS>BOND
     1    83    82    2
     2    82    81    1
     3    81    80    1
     4    81    84    1
     5    84    85    1
     6    85    86   ar
     7    85    87   ar
     8    26    27    1
     9    27    28    1
    10    30    28   am
    11    30    31    1
    12    16    14   ar
    13    75    74    2
    14    28    29    2
    15    32    33    2
    16    32    31    1
    17    31    34    1
    18    34    35    1
    19    14    15   ar
    20    14    13    1
    21    74    73    1
    22    36    35    2
    23    35    37   am
    24    13    10    1
    25    73    72    1
    26    73    76    1
    27    38    39    1
    28    40    41    2
    29    40    39    1
    30    79    77   ar
    31    12    11    2
    32    76    77    1
    33    19    20    2
    34    19    18    1
    35    10    11    1
    36    10     9    1
    37    11    17   am
    38    77    78   ar
    39    39    42    1
    40    69    71   ar
    41    69    67   ar
    42    17    18    1
    43    66    67   ar
    44    66    64   ar
    45    42    43    1
    46    18    21    1
    47    71    70   ar
    48    67    65   ar
    49    43    45    1
    50    43    44    1
    51    64    63   ar
    52    21    22    1
    53    70    68   ar
    54    65    63   ar
    55    65    68   ar
    56    63    62    1
    57    22    23    1
    58    61    60    2
    59    62    59    1
    60    25    23   am
    61    60    59    1
    62    23    24    2
    63     7     5    1
    64    59    58    1
    65     6     8    1
    66     6     5    1
    67    58    56   am
    68     2     5    1
    69     2     3    1
    70     2     1    1
    71     3     4    2
    72    56    55    1
    73    56    57    2
    74    52    51    1
    75    55    54    1
    76    50    51    1
    77    50    47    1
    78    54    48   am
    79    51    53    1
    80    49    48    2
    81    97    96    1
    82    48    47    1
    83    88    89    1
    84    47    46    1
    85    92    89    1
    86    92    93    1
    87    89    90    1
    88    96    98    1
    89    96    95    2
    90    94    93    1
    91    94    95    1
    92    90    91    2
