@<TRIPOS>MOLECULE
tmp/1ga8A00.pdb
 112 108 0 0 0
SMALL
GASTEIGER

@<TRIPOS>ATOM
      1  N         17.1230   46.2590   63.1930 N.3    75  ILE75      -0.1245
      2  CA        17.6790   47.4580   62.5820 C.3    75  ILE75       0.1561
      3  C         17.8820   47.1970   61.0910 C.2    75  ILE75       0.2260
      4  O         18.7390   46.4160   60.6910 O.2    75  ILE75      -0.2867
      5  CB        18.9880   47.8370   63.2990 C.3    75  ILE75       0.0252
      6  CG1       18.7080   47.9130   64.8070 C.3    75  ILE75       0.0019
      7  CG2       19.4860   49.1900   62.8280 C.3    75  ILE75       0.0019
      8  CD1       19.9540   48.0790   65.6750 C.3    75  ILE75       0.0001
      9  N         19.2220   48.7870   58.4460 N.3    77  HIS77      -0.1226
     10  CA        20.4840   48.9410   57.7310 C.3    77  HIS77       0.1752
     11  C         21.5360   47.9100   58.1180 C.2    77  HIS77       0.2595
     12  O         22.6330   47.9090   57.5700 O.2    77  HIS77      -0.2718
     13  CB        21.0640   50.3570   57.9140 C.3    77  HIS77       0.0759
     14  CG        21.6230   50.6260   59.2780 C.ar   77  HIS77       0.0818
     15  ND1       20.8500   51.0690   60.3300 N.ar   77  HIS77      -0.2268
     16  CD2       22.8910   50.5440   59.7510 C.ar   77  HIS77       0.1154
     17  CE1       21.6160   51.2520   61.3900 C.ar   77  HIS77       0.1986
     18  NE2       22.8600   50.9390   61.0650 N.ar   77  HIS77      -0.2212
     19  N         21.1970   47.0100   59.0350 N.am   78  ILE78      -0.1980
     20  CA        22.1720   46.0190   59.4820 C.3    78  ILE78       0.1595
     21  C         21.8480   44.5810   59.0870 C.2    78  ILE78       0.2287
     22  O         20.7320   44.1160   59.2960 O.2    78  ILE78      -0.2864
     23  CB        22.3200   46.0870   61.0240 C.3    78  ILE78       0.0276
     24  CG1       22.7670   47.4920   61.4400 C.3    78  ILE78       0.0022
     25  CG2       23.3140   45.0430   61.5080 C.3    78  ILE78       0.0022
     26  CD1       22.7330   47.7260   62.9570 C.3    78  ILE78       0.0001
     27  N         29.2950   54.7590   74.6130 N.3   129  ASP129     -0.1239
     28  CA        28.2820   55.1760   73.6620 C.3   129  ASP129      0.1674
     29  C         27.3810   56.2070   74.3350 C.2   129  ASP129      0.2266
     30  O         26.5250   55.8490   75.1380 O.2   129  ASP129     -0.2867
     31  CB        27.4500   53.9700   73.2410 C.3   129  ASP129      0.1410
     32  CG        26.6170   54.2420   72.0220 C.2   129  ASP129      0.3668
     33  OD1       25.8750   55.2590   71.9820 O.co2 129  ASP129     -0.2456
     34  OD2       26.7030   53.4280   71.0990 O.co2 129  ASP129     -0.2456
     35  N         25.0600   58.0150   72.9910 N.3   131  PHE131     -0.1227
     36  CA        23.6990   57.9100   72.4920 C.3   131  PHE131      0.1736
     37  C         22.8720   56.9830   73.3780 C.2   131  PHE131      0.2595
     38  O         21.7580   57.3300   73.7940 O.2   131  PHE131     -0.2718
     39  CB        23.7090   57.3970   71.0490 C.3   131  PHE131      0.0547
     40  CG        22.3400   57.2520   70.4460 C.ar  131  PHE131     -0.0202
     41  CD1       21.7020   56.0110   70.4260 C.ar  131  PHE131     -0.0042
     42  CD2       21.6810   58.3540   69.9110 C.ar  131  PHE131     -0.0042
     43  CE1       20.4290   55.8650   69.8820 C.ar  131  PHE131     -0.0003
     44  CE2       20.4000   58.2240   69.3620 C.ar  131  PHE131     -0.0003
     45  CZ        19.7740   56.9710   69.3470 C.ar  131  PHE131     -0.0000
     46  N         23.4270   55.8110   73.6760 N.am  132  VAL132     -0.1980
     47  CA        22.7330   54.8360   74.5090 C.3   132  VAL132      0.1595
     48  C         22.7350   55.2390   75.9850 C.2   132  VAL132      0.2287
     49  O         21.7410   55.0320   76.6840 O.2   132  VAL132     -0.2864
     50  CB        23.3520   53.4350   74.3450 C.3   132  VAL132      0.0276
     51  CG1       22.6370   52.4350   75.2470 C.3   132  VAL132      0.0022
     52  CG2       23.2280   52.9920   72.8900 C.3   132  VAL132      0.0022
     53  N         30.0610   51.1810   72.7790 N.3   151  ASN151     -0.1240
     54  CA        29.6590   50.9700   71.4030 C.3   151  ASN151      0.1653
     55  C         30.4790   49.7970   70.9080 C.2   151  ASN151      0.2266
     56  O         31.6670   49.7050   71.2050 O.2   151  ASN151     -0.2867
     57  CB        29.9260   52.2160   70.5580 C.3   151  ASN151      0.1155
     58  CG        29.5540   52.0120   69.1070 C.2   151  ASN151      0.2627
     59  OD1       30.3760   51.5970   68.2960 O.2   151  ASN151     -0.2716
     60  ND2       28.2960   52.2720   68.7810 N.am  151  ASN151     -0.0877
     61  N         19.5740   46.8120   70.6620 N.3   182  TYR182     -0.1241
     62  CA        20.7660   46.9700   69.8490 C.3   182  TYR182      0.1605
     63  C         21.5270   45.7210   69.4340 C.2   182  TYR182      0.2264
     64  O         22.7300   45.7700   69.2140 O.2   182  TYR182     -0.2867
     65  CB        21.7120   47.9730   70.5150 C.3   182  TYR182      0.0534
     66  CG        21.0540   49.3250   70.7190 C.ar  182  TYR182     -0.0201
     67  CD1       20.5780   49.7090   71.9750 C.ar  182  TYR182     -0.0009
     68  CD2       20.8330   50.1850   69.6380 C.ar  182  TYR182     -0.0009
     69  CE1       19.8910   50.9060   72.1500 C.ar  182  TYR182      0.0417
     70  CE2       20.1420   51.3910   69.8020 C.ar  182  TYR182      0.0417
     71  CZ        19.6750   51.7410   71.0640 C.ar  182  TYR182      0.1957
     72  OH        19.0010   52.9310   71.2460 O.3   182  TYR182     -0.2866
     73  N         25.4180   44.4220   70.0140 N.3   185  GLN185     -0.1245
     74  CA        25.9720   45.4040   70.9330 C.3   185  GLN185      0.1566
     75  C         25.4290   45.1950   72.3450 C.2   185  GLN185      0.2260
     76  O         26.1610   45.3490   73.3220 O.2   185  GLN185     -0.2867
     77  CB        25.6440   46.8100   70.4220 C.3   185  GLN185      0.0367
     78  CG        26.1950   47.9550   71.2510 C.3   185  GLN185      0.0905
     79  CD        26.0470   49.2790   70.5180 C.2   185  GLN185      0.2608
     80  OE1       26.9500   49.6980   69.7940 O.2   185  GLN185     -0.2717
     81  NE2       24.8870   49.9260   70.6790 N.am  185  GLN185     -0.0878
     82  N         28.2570   60.2490   65.6020 N.3   206  PRO206     -0.2102
     83  CA        27.4530   61.4720   65.4860 C.3   206  PRO206      0.1504
     84  C         27.1230   62.1340   66.8320 C.2   206  PRO206      0.2576
     85  O         27.1630   63.3590   66.9550 O.2   206  PRO206     -0.2718
     86  CB        26.2050   60.9890   64.7520 C.3   206  PRO206      0.0282
     87  CG        26.7740   59.9510   63.8290 C.3   206  PRO206      0.0208
     88  CD        27.7000   59.1780   64.7570 C.3   206  PRO206      0.0893
     89  N         26.8070   61.3330   67.8420 N.am  207  THR207     -0.1953
     90  CA        26.4740   61.9050   69.1370 C.3   207  THR207      0.1897
     91  C         27.6650   62.6140   69.7940 C.2   207  THR207      0.2313
     92  O         27.4840   63.6270   70.4870 O.2   207  THR207     -0.2863
     93  CB        25.8690   60.8330   70.0740 C.3   207  THR207      0.1794
     94  OG1       24.7220   60.2630   69.4370 O.3   207  THR207     -0.2208
     95  CG2       25.3980   61.4580   71.3920 C.3   207  THR207      0.0378
     96  N         27.8450   55.2700   62.7790 N.3   235  CYS235     -0.1221
     97  CA        26.7860   54.3580   63.1840 C.3   235  CYS235      0.1808
     98  C         25.4240   54.9410   62.8400 C.2   235  CYS235      0.2602
     99  O         25.2490   56.1640   62.7700 O.2   235  CYS235     -0.2717
    100  CB        26.8840   54.0510   64.6850 C.3   235  CYS235      0.0970
    101  SG        26.8540   55.4960   65.7400 S.3   235  CYS235     -0.0800
    102  N         24.4610   54.0610   62.5960 N.am  236  GLY236     -0.1943
    103  CA        23.1320   54.5260   62.2520 C.3   236  GLY236      0.1998
    104  C         22.9170   54.3790   60.7600 C.2   236  GLY236      0.2480
    105  O         23.8490   54.0310   60.0410 O.2   236  GLY236     -0.2729
    106  N         21.7060   54.6730   60.2580 N.am  237  PRO237     -0.2726
    107  CA        21.3950   54.5530   58.8320 C.3   237  PRO237      0.1402
    108  C         22.1260   55.4840   57.8650 C.2   237  PRO237      0.2269
    109  O         22.2230   55.1780   56.6830 O.2   237  PRO237     -0.2865
    110  CB        19.8790   54.7520   58.7990 C.3   237  PRO237      0.0296
    111  CG        19.6550   55.7360   59.9150 C.3   237  PRO237      0.0237
    112  CD        20.5460   55.1910   61.0100 C.3   237  PRO237      0.0939
@<TRIPOS>BOND
     1   109   108    2
     2    12    11    2
     3    10    13    1
     4    10    11    1
     5    10     9    1
     6   108   107    1
     7    13    14    1
     8    11    19   am
     9   110   107    1
    10   110   111    1
    11   107   106    1
    12    19    20    1
    13    21    22    2
    14    21    20    1
    15    14    16   ar
    16    14    15   ar
    17    20    23    1
    18    16    18   ar
    19   111   112    1
    20   105   104    2
    21   106   104   am
    22   106   112    1
    23    15    17   ar
    24     4     3    2
    25   104   103    1
    26    23    24    1
    27    23    25    1
    28    18    17   ar
    29     3     2    1
    30    24    26    1
    31   103   102    1
    32     2     1    1
    33     2     5    1
    34   102    98   am
    35    99    98    2
    36    96    97    1
    37     7     5    1
    38    98    97    1
    39    97   100    1
    40     5     6    1
    41    87    86    1
    42    87    88    1
    43   100   101    1
    44    86    83    1
    45    88    82    1
    46     6     8    1
    47    83    82    1
    48    83    84    1
    49    84    85    2
    50    84    89   am
    51    89    90    1
    52    59    58    2
    53    60    58   am
    54    58    57    1
    55    90    91    1
    56    90    93    1
    57    64    63    2
    58    45    44   ar
    59    45    43   ar
    60    44    42   ar
    61    63    62    1
    62    94    93    1
    63    68    70   ar
    64    68    66   ar
    65    91    92    2
    66    80    79    2
    67    70    71   ar
    68    62    65    1
    69    62    61    1
    70    43    41   ar
    71    42    40   ar
    72    73    74    1
    73    93    95    1
    74    77    74    1
    75    77    78    1
    76    41    40   ar
    77    40    39    1
    78    65    66    1
    79    79    81   am
    80    79    78    1
    81    57    54    1
    82    66    67   ar
    83    55    56    2
    84    55    54    1
    85    74    75    1
    86    39    36    1
    87    71    72    1
    88    71    69   ar
    89    34    32   ar
    90    54    53    1
    91    67    69   ar
    92    33    32   ar
    93    32    31    1
    94    75    76    2
    95    36    35    1
    96    36    37    1
    97    52    50    1
    98    31    28    1
    99    37    46   am
   100    37    38    2
   101    28    29    1
   102    28    27    1
   103    46    47    1
   104    29    30    2
   105    50    47    1
   106    50    51    1
   107    47    48    1
   108    48    49    2
