@<TRIPOS>MOLECULE
tmp/1ga9A00.pdb
 108 100 0 0 0
SMALL
GASTEIGER

@<TRIPOS>ATOM
      1  N         27.2780    1.4370   16.1840 N.3    61  SER61      -0.1217
      2  CA        28.6310    1.8990   16.4700 C.3    61  SER61       0.1889
      3  C         29.5170    0.9810   17.3130 C.2    61  SER61       0.2288
      4  O         30.7060    1.2690   17.4870 O.2    61  SER61      -0.2866
      5  CB        28.5800    3.2890   17.0570 C.3    61  SER61       0.2089
      6  OG        28.1560    4.1320   15.9960 O.3    61  SER61      -0.2183
      7  N         29.6290   14.0820   12.4900 N.3   116  LEU116     -0.1231
      8  CA        29.0890   12.8230   13.0130 C.3   116  LEU116      0.1693
      9  C         28.6630   11.9190   11.8560 C.2   116  LEU116      0.2591
     10  O         28.9750   10.7250   11.8550 O.2   116  LEU116     -0.2718
     11  CB        27.8880   13.0490   13.9490 C.3   116  LEU116      0.0284
     12  CG        27.2050   11.7450   14.4360 C.3   116  LEU116      0.0019
     13  CD1       28.1950   10.8210   15.1390 C.3   116  LEU116      0.0001
     14  CD2       26.0930   12.0940   15.3940 C.3   116  LEU116      0.0001
     15  N         27.9850   12.4820   10.8670 N.am  117  GLN117     -0.1979
     16  CA        27.5510   11.6870    9.7100 C.3   117  GLN117      0.1601
     17  C         28.0870   12.1460    8.3560 C.2   117  GLN117      0.2287
     18  O         28.2480   13.3500    8.0980 O.2   117  GLN117     -0.2864
     19  CB        26.0050   11.6550    9.6200 C.3   117  GLN117      0.0394
     20  CG        25.3320   10.9610   10.8110 C.3   117  GLN117      0.0908
     21  CD        23.8320   10.7960   10.6360 C.2   117  GLN117      0.2608
     22  OE1       23.3590    9.8220   10.0220 O.2   117  GLN117     -0.2717
     23  NE2       23.0690   11.7530   11.1780 N.am  117  GLN117     -0.0878
     24  N         32.8010   13.0490   18.3080 N.3   147  TYR147     -0.1241
     25  CA        32.4650   11.6680   17.8840 C.3   147  TYR147      0.1605
     26  C         31.9250   11.7210   16.4550 C.2   147  TYR147      0.2264
     27  O         30.9390   12.3950   16.1840 O.2   147  TYR147     -0.2867
     28  CB        31.4290   11.1220   18.8400 C.3   147  TYR147      0.0534
     29  CG        30.9960    9.7090   18.5450 C.ar  147  TYR147     -0.0201
     30  CD1       29.7260    9.4620   18.0310 C.ar  147  TYR147     -0.0009
     31  CD2       31.8300    8.6250   18.8300 C.ar  147  TYR147     -0.0009
     32  CE1       29.2670    8.1760   17.8120 C.ar  147  TYR147      0.0417
     33  CE2       31.3880    7.3050   18.6070 C.ar  147  TYR147      0.0417
     34  CZ        30.0890    7.0980   18.1050 C.ar  147  TYR147      0.1957
     35  OH        29.5680    5.8440   17.9640 O.3   147  TYR147     -0.2866
     36  N         31.4070    9.4460   12.5250 N.3   149  ASN149     -0.1240
     37  CA        31.5870    8.2780   11.6470 C.3   149  ASN149      0.1653
     38  C         32.5590    8.5960   10.5420 C.2   149  ASN149      0.2266
     39  O         33.2560    7.6980   10.0730 O.2   149  ASN149     -0.2867
     40  CB        30.2630    7.8650   10.9590 C.3   149  ASN149      0.1155
     41  CG        29.2640    7.2760   11.9280 C.2   149  ASN149      0.2627
     42  OD1       29.5960    6.9460   13.0760 O.2   149  ASN149     -0.2716
     43  ND2       28.0290    7.1340   11.4750 N.am  149  ASN149     -0.0877
     44  N         19.2150   -1.3380    9.0020 N.3   208  VAL208     -0.1231
     45  CA        20.1180   -0.2460    8.7020 C.3   208  VAL208      0.1692
     46  C         20.2930   -0.1060    7.1850 C.2   208  VAL208      0.2592
     47  O         20.3550   -1.0850    6.4530 O.2   208  VAL208     -0.2718
     48  CB        21.5020   -0.4620    9.4020 C.3   208  VAL208      0.0266
     49  CG1       22.1970   -1.7330    8.8620 C.3   208  VAL208      0.0020
     50  CG2       22.3720    0.7830    9.2370 C.3   208  VAL208      0.0020
     51  N         20.3350    1.1330    6.7190 N.am  209  SER209     -0.1952
     52  CA        20.5260    1.4160    5.2940 C.3   209  SER209      0.1924
     53  C         22.0040    1.5490    4.9690 C.2   209  SER209      0.2314
     54  O         22.7930    2.0580    5.7850 O.2   209  SER209     -0.2863
     55  CB        19.8540    2.7360    4.9090 C.3   209  SER209      0.2116
     56  OG        18.4440    2.6330    5.0270 O.3   209  SER209     -0.2180
     57  N         29.5170    1.4740   11.2890 N.3   218  TYR218     -0.1241
     58  CA        28.3490    0.9390   11.9880 C.3   218  TYR218      0.1605
     59  C         27.7160   -0.2900   11.3110 C.2   218  TYR218      0.2264
     60  O         26.5470   -0.6030   11.5590 O.2   218  TYR218     -0.2867
     61  CB        27.3040    2.0590   12.0810 C.3   218  TYR218      0.0534
     62  CG        26.9580    2.6860   10.7140 C.ar  218  TYR218     -0.0201
     63  CD1       26.0620    2.0640    9.8480 C.ar  218  TYR218     -0.0009
     64  CD2       27.5510    3.8740   10.2940 C.ar  218  TYR218     -0.0009
     65  CE1       25.7510    2.6000    8.6000 C.ar  218  TYR218      0.0417
     66  CE2       27.2610    4.4340    9.0310 C.ar  218  TYR218      0.0417
     67  CZ        26.3590    3.7880    8.1970 C.ar  218  TYR218      0.1957
     68  OH        26.0640    4.3050    6.9650 O.3   218  TYR218     -0.2866
     69  N         23.7130   11.1650   24.8170 N.3   286  ASN286     -0.1240
     70  CA        24.2000   11.8560   23.6190 C.3   286  ASN286      0.1653
     71  C         24.4330   13.3580   23.7950 C.2   286  ASN286      0.2266
     72  O         25.2410   13.9630   23.0890 O.2   286  ASN286     -0.2867
     73  CB        23.2270   11.6070   22.4620 C.3   286  ASN286      0.1155
     74  CG        23.3790   10.2170   21.8700 C.2   286  ASN286      0.2627
     75  OD1       22.4560    9.6970   21.2530 O.2   286  ASN286     -0.2716
     76  ND2       24.5570    9.6180   22.0380 N.am  286  ASN286     -0.0877
     77  N         27.8920   13.0100   22.1410 N.3   290  LEU290     -0.1245
     78  CA        28.0550   13.5550   20.8000 C.3   290  LEU290      0.1561
     79  C         28.5700   14.9950   20.7770 C.2   290  LEU290      0.2260
     80  O         28.8210   15.5210   19.6960 O.2   290  LEU290     -0.2867
     81  CB        26.7070   13.4690   20.0610 C.3   290  LEU290      0.0270
     82  CG        25.9990   12.0980   20.0750 C.3   290  LEU290      0.0019
     83  CD1       24.5930   12.2030   19.4290 C.3   290  LEU290      0.0001
     84  CD2       26.8510   11.0830   19.3440 C.3   290  LEU290      0.0001
     85  N         24.0910    2.1910   18.1510 N.3   315  ALA315     -0.1231
     86  CA        22.6890    2.2360   17.7790 C.3   315  ALA315      0.1694
     87  C         22.4700    2.4220   16.2850 C.2   315  ALA315      0.2593
     88  O         23.2930    2.9900   15.5830 O.2   315  ALA315     -0.2718
     89  CB        21.9820    3.3690   18.5350 C.3   315  ALA315      0.0304
     90  N         21.3590    1.8830   15.7950 N.am  316  THR316     -0.1939
     91  CA        20.9730    2.1320   14.4210 C.3   316  THR316      0.2028
     92  C         19.5270    2.6400   14.5930 C.2   316  THR316      0.2642
     93  O         19.0240    2.7450   15.7060 O.2   316  THR316     -0.2714
     94  CB        21.0490    0.8720   13.5500 C.3   316  THR316      0.1808
     95  OG1       20.1620   -0.1290   14.0710 O.3   316  THR316     -0.2208
     96  CG2       22.5200    0.3620   13.4780 C.3   316  THR316      0.0379
     97  N         18.8550    2.9840   13.5150 N.am  317  GLY317     -0.1954
     98  CA        17.5030    3.4810   13.6740 C.3   317  GLY317      0.1869
     99  C         16.6310    2.4910   14.4370 C.2   317  GLY317      0.2309
    100  O         15.7610    2.8820   15.2120 O.2   317  GLY317     -0.2863
    101  N         16.0550    1.1080   19.5090 N.3   340  ASN340     -0.1240
    102  CA        17.0280    2.1040   19.9620 C.3   340  ASN340      0.1653
    103  C         16.3780    2.7700   21.1900 C.2   340  ASN340      0.2266
    104  O         15.3610    3.4480   21.0450 O.2   340  ASN340     -0.2867
    105  CB        17.2350    3.1550   18.8540 C.3   340  ASN340      0.1155
    106  CG        18.3690    4.1520   19.1580 C.2   340  ASN340      0.2627
    107  OD1       19.0320    4.0810   20.1850 O.2   340  ASN340     -0.2716
    108  ND2       18.5860    5.0800   18.2340 N.am  340  ASN340     -0.0877
@<TRIPOS>BOND
     1    55    56    1
     2    55    52    1
     3    53    52    1
     4    53    54    2
     5    52    51    1
     6    47    46    2
     7    51    46   am
     8    68    67    1
     9    46    45    1
    10    18    17    2
    11    67    65   ar
    12    67    66   ar
    13    17    16    1
    14    65    63   ar
    15    45    44    1
    16    45    48    1
    17    49    48    1
    18    66    64   ar
    19    50    48    1
    20    19    16    1
    21    19    20    1
    22    16    15    1
    23    63    62   ar
    24    22    21    2
    25    39    38    2
    26    64    62   ar
    27    38    37    1
    28    21    20    1
    29    21    23   am
    30    62    61    1
    31    15     9   am
    32    40    37    1
    33    40    41    1
    34    57    58    1
    35    59    60    2
    36    59    58    1
    37    43    41   am
    38    37    36    1
    39    10     9    2
    40     9     8    1
    41    41    42    2
    42    58    61    1
    43     7     8    1
    44     8    11    1
    45    96    94    1
    46    97    98    1
    47    97    92   am
    48    94    95    1
    49    94    91    1
    50    98    99    1
    51    11    12    1
    52    91    92    1
    53    91    90    1
    54    12    13    1
    55    12    14    1
    56    99   100    2
    57    92    93    2
    58    88    87    2
    59    90    87   am
    60     6     5    1
    61     1     2    1
    62    27    26    2
    63    87    86    1
    64    26    25    1
    65     2     5    1
    66     2     3    1
    67     3     4    2
    68    86    85    1
    69    86    89    1
    70    32    30   ar
    71    32    34   ar
    72    25    24    1
    73    25    28    1
    74    35    34    1
    75    30    29   ar
    76    34    33   ar
    77   108   106   am
    78    29    31   ar
    79    29    28    1
    80    33    31   ar
    81   105   106    1
    82   105   102    1
    83   106   107    2
    84    84    82    1
    85    83    82    1
    86   101   102    1
    87    80    79    2
    88   102   103    1
    89    81    82    1
    90    81    78    1
    91    79    78    1
    92    78    77    1
    93   104   103    2
    94    75    74    2
    95    74    76   am
    96    74    73    1
    97    73    70    1
    98    72    71    2
    99    70    71    1
   100    70    69    1
