@<TRIPOS>MOLECULE
tmp/1gaiA00.pdb
 180 180 0 0 0
SMALL
GASTEIGER

@<TRIPOS>ATOM
      1  N         26.0670   24.4300   14.5650 N.3    39  ALA39      -0.1245
      2  CA        27.3590   24.7180   13.9280 C.3    39  ALA39       0.1562
      3  C         27.4470   26.1110   13.2890 C.2    39  ALA39       0.2260
      4  O         28.4700   26.7910   13.4000 O.2    39  ALA39      -0.2867
      5  CB        27.7040   23.6350   12.9170 C.3    39  ALA39       0.0290
      6  N         24.5820   24.3010    4.1280 N.3    47  ASP47      -0.1225
      7  CA        23.6040   24.0810    5.1810 C.3    47  ASP47       0.1805
      8  C         24.3170   23.4800    6.3930 C.2    47  ASP47       0.2597
      9  O         24.5880   22.2780    6.4360 O.2    47  ASP47      -0.2718
     10  CB        22.4950   23.1430    4.7100 C.3    47  ASP47       0.1424
     11  CG        21.4430   22.8920    5.7790 C.2    47  ASP47       0.3668
     12  OD1       21.4860   23.5160    6.8620 O.co2  47  ASP47      -0.2456
     13  OD2       20.5690   22.0380    5.5420 O.co2  47  ASP47      -0.2456
     14  N         24.6560   24.3370    7.3480 N.am   48  TYR48      -0.1976
     15  CA        25.3200   23.9070    8.5780 C.3    48  TYR48       0.1639
     16  C         24.3380   23.9870    9.7550 C.2    48  TYR48       0.2290
     17  O         24.7470   23.9720   10.9220 O.2    48  TYR48      -0.2864
     18  CB        26.5390   24.7940    8.8710 C.3    48  TYR48       0.0560
     19  CG        27.8260   24.3790    8.1910 C.ar   48  TYR48      -0.0198
     20  CD1       27.8200   23.7750    6.9310 C.ar   48  TYR48      -0.0009
     21  CD2       29.0560   24.6160    8.8030 C.ar   48  TYR48      -0.0009
     22  CE1       29.0030   23.4240    6.3000 C.ar   48  TYR48       0.0417
     23  CE2       30.2500   24.2730    8.1770 C.ar   48  TYR48       0.0417
     24  CZ        30.2150   23.6780    6.9280 C.ar   48  TYR48       0.1957
     25  OH        31.3810   23.3440    6.2890 O.3    48  TYR48      -0.2866
     26  N         26.5350   19.1150   15.5430 N.3    52  TRP52      -0.1241
     27  CA        27.5640   18.0830   15.4460 C.3    52  TRP52       0.1605
     28  C         28.0620   17.7850   16.8540 C.2    52  TRP52       0.2264
     29  O         28.2600   18.7120   17.6560 O.2    52  TRP52      -0.2867
     30  CB        28.7560   18.5770   14.6180 C.3    52  TRP52       0.0550
     31  CG        28.6800   18.3330   13.1460 C.ar   52  TRP52       0.0003
     32  CD1       29.3200   17.3430   12.4480 C.ar   52  TRP52       0.0946
     33  CD2       28.0230   19.1540   12.1670 C.ar   52  TRP52       0.0152
     34  NE1       29.1200   17.5110   11.1010 N.ar   52  TRP52      -0.2442
     35  CE2       28.3330   18.6140   10.8960 C.ar   52  TRP52       0.0810
     36  CE3       27.2110   20.3000   12.2380 C.ar   52  TRP52       0.0012
     37  CZ2       27.8620   19.1830    9.6980 C.ar   52  TRP52       0.0191
     38  CZ3       26.7380   20.8680   11.0420 C.ar   52  TRP52       0.0001
     39  CH2       27.0700   20.3050    9.7920 C.ar   52  TRP52       0.0015
     40  N         31.0310   16.8040   17.6970 N.3    54  ARG54      -0.1231
     41  CA        32.3670   17.4040   17.8240 C.3    54  ARG54       0.1694
     42  C         32.3020   18.9060   18.1010 C.2    54  ARG54       0.2592
     43  O         32.8060   19.3670   19.1240 O.2    54  ARG54      -0.2718
     44  CB        33.1940   17.1540   16.5550 C.3    54  ARG54       0.0321
     45  CG        34.4760   18.0040   16.4320 C.3    54  ARG54       0.0489
     46  CD        35.2520   17.6500   15.1610 C.3    54  ARG54       0.2205
     47  NE        34.3630   17.6120   13.9990 N.pl3  54  ARG54      -0.0865
     48  CZ        33.8740   16.4920   13.4580 C.cat  54  ARG54       0.5346
     49  NH1       34.2040   15.2940   13.9470 N.pl3  54  ARG54       0.1354
     50  NH2       32.9580   16.5730   12.5070 N.pl3  54  ARG54       0.1354
     51  N         31.6750   19.6780   17.2130 N.am   55  ASP55      -0.1974
     52  CA        31.6110   21.1350   17.4150 C.3    55  ASP55       0.1709
     53  C         31.0140   21.4840   18.7720 C.2    55  ASP55       0.2293
     54  O         31.5320   22.3520   19.4800 O.2    55  ASP55      -0.2864
     55  CB        30.7820   21.8250   16.3240 C.3    55  ASP55       0.1436
     56  CG        31.3490   21.6220   14.9440 C.2    55  ASP55       0.3671
     57  OD1       31.7030   20.4740   14.6000 O.co2  55  ASP55      -0.2456
     58  OD2       31.4270   22.6100   14.1920 O.co2  55  ASP55      -0.2456
     59  N         26.2880   10.2070    5.0780 N.3   119  TRP119     -0.1241
     60  CA        27.2530   11.0940    5.7050 C.3   119  TRP119      0.1605
     61  C         28.4330   10.2190    6.0610 C.2   119  TRP119      0.2264
     62  O         28.2760    8.9960    6.1470 O.2   119  TRP119     -0.2867
     63  CB        26.6660   11.6740    6.9930 C.3   119  TRP119      0.0550
     64  CG        27.3180   12.9380    7.4120 C.ar  119  TRP119      0.0003
     65  CD1       28.2010   13.1090    8.4480 C.ar  119  TRP119      0.0946
     66  CD2       27.1910   14.2100    6.7740 C.ar  119  TRP119      0.0152
     67  NE1       28.6330   14.4150    8.4820 N.ar  119  TRP119     -0.2442
     68  CE2       28.0350   15.1130    7.4680 C.ar  119  TRP119      0.0810
     69  CE3       26.4500   14.6800    5.6800 C.ar  119  TRP119      0.0012
     70  CZ2       28.1610   16.4580    7.0970 C.ar  119  TRP119      0.0191
     71  CZ3       26.5760   16.0210    5.3130 C.ar  119  TRP119      0.0001
     72  CH2       27.4300   16.8930    6.0240 C.ar  119  TRP119      0.0015
     73  N         38.0700   14.0030   11.6860 N.3   176  LEU176     -0.1231
     74  CA        37.3480   15.2020   12.1030 C.3   176  LEU176      0.1693
     75  C         36.8590   16.0510   10.9350 C.2   176  LEU176      0.2592
     76  O         35.9240   16.8330   11.0930 O.2   176  LEU176     -0.2718
     77  CB        38.1830   16.0570   13.0730 C.3   176  LEU176      0.0284
     78  CG        39.2610   17.0100   12.5280 C.3   176  LEU176      0.0019
     79  CD1       39.7510   17.8970   13.6650 C.3   176  LEU176      0.0001
     80  CD2       40.4240   16.2440   11.8820 C.3   176  LEU176      0.0001
     81  N         37.5120   15.9390    9.7790 N.am  177  TRP177     -0.1962
     82  CA        37.0930   16.7130    8.6130 C.3   177  TRP177      0.1771
     83  C         35.9850   15.9830    7.8400 C.2   177  TRP177      0.2620
     84  O         35.5210   16.4690    6.8050 O.2   177  TRP177     -0.2715
     85  CB        38.2690   17.0280    7.6820 C.3   177  TRP177      0.0590
     86  CG        39.4810   17.7420    8.3030 C.ar  177  TRP177      0.0006
     87  CD1       40.7900   17.4790    8.0140 C.ar  177  TRP177      0.0946
     88  CD2       39.4930   18.8860    9.1980 C.ar  177  TRP177      0.0152
     89  NE1       41.6110   18.3890    8.6420 N.ar  177  TRP177     -0.2442
     90  CE2       40.8520   19.2580    9.3770 C.ar  177  TRP177      0.0810
     91  CE3       38.5010   19.6310    9.8530 C.ar  177  TRP177      0.0012
     92  CZ2       41.2470   20.3470   10.1800 C.ar  177  TRP177      0.0191
     93  CZ3       38.8930   20.7220   10.6610 C.ar  177  TRP177      0.0001
     94  CH2       40.2590   21.0650   10.8110 C.ar  177  TRP177      0.0015
     95  N         35.6060   14.7980    8.3260 N.am  178  GLU178     -0.1963
     96  CA        34.5100   13.9960    7.7600 C.3   178  GLU178      0.1733
     97  C         34.7430   13.5040    6.3290 C.2   178  GLU178      0.2616
     98  O         33.7830   13.2770    5.5850 O.2   178  GLU178     -0.2715
     99  CB        33.2210   14.8340    7.7810 C.3   178  GLU178      0.0429
    100  CG        33.0710   15.7350    9.0160 C.3   178  GLU178      0.1163
    101  CD        31.6680   16.2960    9.1600 C.2   178  GLU178      0.3649
    102  OE1       30.8260   15.6030    9.7510 O.co2 178  GLU178     -0.2457
    103  OE2       31.4080   17.4270    8.7000 O.co2 178  GLU178     -0.2457
    104  N         35.9960   13.2400    5.9780 N.am  179  GLU179     -0.1977
    105  CA        36.3190   12.8630    4.6000 C.3   179  GLU179      0.1602
    106  C         37.1220   11.5850    4.4170 C.2   179  GLU179      0.2287
    107  O         36.9720   10.8980    3.4030 O.2   179  GLU179     -0.2864
    108  CB        37.0900   14.0190    3.9330 C.3   179  GLU179      0.0415
    109  CG        36.3270   15.3430    3.8760 C.3   179  GLU179      0.1163
    110  CD        37.2190   16.5580    3.7110 C.2   179  GLU179      0.3649
    111  OE1       38.4180   16.4840    4.0470 O.co2 179  GLU179     -0.2457
    112  OE2       36.7200   17.6100    3.2650 O.co2 179  GLU179     -0.2457
    113  N         43.4590   23.5210    6.1890 N.3   304  ARG304     -0.1245
    114  CA        43.3560   22.1920    6.7940 C.3   304  ARG304      0.1563
    115  C         44.5120   21.2780    6.3840 C.2   304  ARG304      0.2260
    116  O         45.2700   20.8240    7.2260 O.2   304  ARG304     -0.2867
    117  CB        42.0070   21.5500    6.4450 C.3   304  ARG304      0.0307
    118  CG        40.8190   22.4020    6.8930 C.3   304  ARG304      0.0489
    119  CD        39.5120   21.6320    6.7900 C.3   304  ARG304      0.2205
    120  NE        39.1990   21.2410    5.4140 N.pl3 304  ARG304     -0.0865
    121  CZ        38.1400   20.5140    5.0690 C.cat 304  ARG304      0.5346
    122  NH1       37.2800   20.1070    6.0000 N.pl3 304  ARG304      0.1354
    123  NH2       37.9740   20.1420    3.8030 N.pl3 304  ARG304      0.1354
    124  N         37.8950   21.5420   -0.7300 N.3   310  TYR310     -0.1241
    125  CA        36.5910   21.9790   -0.2240 C.3   310  TYR310      0.1605
    126  C         36.5170   23.4960   -0.4090 C.2   310  TYR310      0.2264
    127  O         37.3320   24.2500    0.1380 O.2   310  TYR310     -0.2867
    128  CB        36.4400   21.5670    1.2440 C.3   310  TYR310      0.0534
    129  CG        35.0920   21.8730    1.8540 C.ar  310  TYR310     -0.0201
    130  CD1       33.9090   21.4970    1.2100 C.ar  310  TYR310     -0.0009
    131  CD2       34.9990   22.5270    3.0890 C.ar  310  TYR310     -0.0009
    132  CE1       32.6590   21.7650    1.7800 C.ar  310  TYR310      0.0417
    133  CE2       33.7570   22.7990    3.6700 C.ar  310  TYR310      0.0417
    134  CZ        32.5930   22.4130    3.0080 C.ar  310  TYR310      0.1957
    135  OH        31.3670   22.6670    3.5700 O.3   310  TYR310     -0.2866
    136  N         41.5490   28.4840    6.9300 N.3   316  TRP316     -0.1241
    137  CA        40.4190   28.4440    7.8560 C.3   316  TRP316      0.1605
    138  C         40.8020   29.2700    9.0690 C.2   316  TRP316      0.2264
    139  O         41.9540   29.2140    9.5090 O.2   316  TRP316     -0.2867
    140  CB        40.1650   27.0060    8.3190 C.3   316  TRP316      0.0550
    141  CG        39.4330   26.1420    7.3260 C.ar  316  TRP316      0.0003
    142  CD1       39.6390   26.0700    5.9720 C.ar  316  TRP316      0.0946
    143  CD2       38.3700   25.2280    7.6200 C.ar  316  TRP316      0.0152
    144  NE1       38.7660   25.1660    5.4080 N.ar  316  TRP316     -0.2442
    145  CE2       37.9730   24.6360    6.3940 C.ar  316  TRP316      0.0810
    146  CE3       37.7080   24.8510    8.8050 C.ar  316  TRP316      0.0012
    147  CZ2       36.9390   23.6850    6.3170 C.ar  316  TRP316      0.0191
    148  CZ3       36.6850   23.9050    8.7310 C.ar  316  TRP316      0.0001
    149  CH2       36.3120   23.3350    7.4880 C.ar  316  TRP316      0.0015
    150  N         33.7620   30.2050    8.3700 N.3   399  GLU399     -0.1245
    151  CA        34.5530   28.9950    8.4270 C.3   399  GLU399      0.1567
    152  C         35.9050   29.2250    7.7290 C.2   399  GLU399      0.2260
    153  O         36.9710   28.9130    8.2830 O.2   399  GLU399     -0.2867
    154  CB        33.8190   27.8630    7.7290 C.3   399  GLU399      0.0388
    155  CG        34.5680   26.5470    7.7780 C.3   399  GLU399      0.1160
    156  CD        33.8800   25.4750    6.9740 C.2   399  GLU399      0.3649
    157  OE1       33.9070   25.5510    5.7300 O.co2 399  GLU399     -0.2457
    158  OE2       33.3180   24.5500    7.5840 O.co2 399  GLU399     -0.2457
    159  N         30.5210   30.8180   12.2100 N.3   414  LEU414     -0.1245
    160  CA        30.7670   29.4380   12.6190 C.3   414  LEU414      0.1561
    161  C         31.1050   29.4050   14.1080 C.2   414  LEU414      0.2260
    162  O         32.0900   29.9990   14.5410 O.2   414  LEU414     -0.2867
    163  CB        31.9140   28.8560   11.7990 C.3   414  LEU414      0.0270
    164  CG        32.1750   27.3740   12.0360 C.3   414  LEU414      0.0019
    165  CD1       31.1490   26.5420   11.2590 C.3   414  LEU414      0.0001
    166  CD2       33.6040   27.0180   11.6100 C.3   414  LEU414      0.0001
    167  N         32.4330   27.1660   16.0310 N.3   416  TRP416     -0.1241
    168  CA        33.7720   26.6740   16.3470 C.3   416  TRP416      0.1605
    169  C         34.8270   27.7690   16.1180 C.2   416  TRP416      0.2264
    170  O         35.7730   27.8660   16.9020 O.2   416  TRP416     -0.2867
    171  CB        34.0400   25.4000   15.5450 C.3   416  TRP416      0.0550
    172  CG        35.2970   24.6170   15.8540 C.ar  416  TRP416      0.0003
    173  CD1       36.2970   24.9210   16.7570 C.ar  416  TRP416      0.0946
    174  CD2       35.7020   23.4160   15.1930 C.ar  416  TRP416      0.0152
    175  NE1       37.3050   23.9690   16.6750 N.ar  416  TRP416     -0.2442
    176  CE2       36.9610   23.0390   15.7260 C.ar  416  TRP416      0.0810
    177  CE3       35.1260   22.6200   14.1910 C.ar  416  TRP416      0.0012
    178  CZ2       37.6540   21.9010   15.2790 C.ar  416  TRP416      0.0191
    179  CZ3       35.8180   21.4850   13.7440 C.ar  416  TRP416      0.0001
    180  CH2       37.0670   21.1390   14.2920 C.ar  416  TRP416      0.0015
@<TRIPOS>BOND
     1   124   125    1
     2   126   125    1
     3   126   127    2
     4   125   128    1
     5   130   132   ar
     6   130   129   ar
     7   128   129    1
     8   132   134   ar
     9   129   131   ar
    10   134   135    1
    11   134   133   ar
    12   131   133   ar
    13   112   110   ar
    14   107   106    2
    15   110   109    1
    16   110   111   ar
    17   123   121    1
    18   109   108    1
    19   108   105    1
    20     6     7    1
    21   106   105    1
    22   105   104    1
    23    10     7    1
    24    10    11    1
    25   121   120    2
    26   121   122    1
    27    59    60    1
    28     7     8    1
    29    71    69   ar
    30    71    72   ar
    31   144   142   ar
    32   144   145   ar
    33   120   119    1
    34    13    11   ar
    35    98    97    2
    36    69    66   ar
    37    60    61    1
    38    60    63    1
    39   157   156   ar
    40    11    12   ar
    41   142   141   ar
    42   104    97   am
    43    72    70   ar
    44    61    62    2
    45   113   114    1
    46    25    24    1
    47    22    24   ar
    48    22    20   ar
    49   147   145   ar
    50   147   149   ar
    51    97    96    1
    52   115   114    1
    53   115   116    2
    54     8     9    2
    55     8    14   am
    56   145   143   ar
    57   117   114    1
    58   117   118    1
    59    66    64   ar
    60    66    68   ar
    61   119   118    1
    62    84    83    2
    63    24    23   ar
    64   136   137    1
    65    20    19   ar
    66   156   158   ar
    67   156   155    1
    68    63    64    1
    69    70    68   ar
    70   141   143   ar
    71   141   140    1
    72    14    15    1
    73    64    65   ar
    74    68    67   ar
    75   149   148   ar
    76   143   146   ar
    77    85    86    1
    78    85    82    1
    79   152   153    2
    80   152   151    1
    81   154   155    1
    82   154   151    1
    83    96    99    1
    84    96    95    1
    85    99   100    1
    86    83    95   am
    87    83    82    1
    88   137   140    1
    89   137   138    1
    90    87    86   ar
    91    87    89   ar
    92    23    21   ar
    93    19    21   ar
    94    19    18    1
    95    86    88   ar
    96   150   151    1
    97    65    67   ar
    98    15    18    1
    99    15    16    1
   100    82    81    1
   101    89    90   ar
   102   103   101   ar
   103   148   146   ar
   104   100   101    1
   105   138   139    2
   106   101   102   ar
   107    88    90   ar
   108    88    91   ar
   109    90    92   ar
   110    37    39   ar
   111    37    35   ar
   112    16    17    2
   113    81    75   am
   114    39    38   ar
   115    91    93   ar
   116    92    94   ar
   117    93    94   ar
   118    35    34   ar
   119    35    33   ar
   120    75    76    2
   121    75    74    1
   122    38    36   ar
   123    34    32   ar
   124   165   164    1
   125   166   164    1
   126    73    74    1
   127   163   164    1
   128   163   160    1
   129    80    78    1
   130    74    77    1
   131    33    36   ar
   132    33    31   ar
   133   159   160    1
   134    32    31   ar
   135    50    48    1
   136    78    77    1
   137    78    79    1
   138   160   161    1
   139     5     2    1
   140    31    30    1
   141     3     4    2
   142     3     2    1
   143    48    49    1
   144    48    47    2
   145   179   177   ar
   146   179   180   ar
   147     2     1    1
   148    47    46    1
   149   161   162    2
   150   177   174   ar
   151    58    56   ar
   152   180   178   ar
   153    57    56   ar
   154    30    27    1
   155    56    55    1
   156    46    45    1
   157   174   176   ar
   158   174   172   ar
   159   178   176   ar
   160    27    26    1
   161    27    28    1
   162   171   172    1
   163   171   168    1
   164   176   175   ar
   165   172   173   ar
   166   167   168    1
   167   169   168    1
   168   169   170    2
   169    55    52    1
   170    45    44    1
   171    44    41    1
   172   175   173   ar
   173    28    29    2
   174    51    52    1
   175    51    42   am
   176    52    53    1
   177    40    41    1
   178    41    42    1
   179    42    43    2
   180    53    54    2
