@<TRIPOS>MOLECULE
tmp/1gaiA09.pdb
 178 176 0 0 0
SMALL
GASTEIGER

@<TRIPOS>ATOM
      1  N         37.8360    2.0720   19.8070 N.3   169  TRP169     -0.1227
      2  CA        38.9700    2.8920   19.4040 C.3   169  TRP169      0.1737
      3  C         39.8310    2.2770   18.2920 C.2   169  TRP169      0.2595
      4  O         40.3210    2.9950   17.4200 O.2   169  TRP169     -0.2718
      5  CB        39.8410    3.2500   20.6190 C.3   169  TRP169      0.0564
      6  CG        40.6100    2.0930   21.2090 C.ar  169  TRP169      0.0003
      7  CD1       40.2440    1.3130   22.2680 C.ar  169  TRP169      0.0946
      8  CD2       41.8830    1.5950   20.7630 C.ar  169  TRP169      0.0152
      9  NE1       41.2050    0.3570   22.5090 N.ar  169  TRP169     -0.2442
     10  CE2       42.2210    0.5020   21.6000 C.ar  169  TRP169      0.0810
     11  CE3       42.7680    1.9640   19.7350 C.ar  169  TRP169      0.0012
     12  CZ2       43.4110   -0.2330   21.4450 C.ar  169  TRP169      0.0191
     13  CZ3       43.9620    1.2280   19.5770 C.ar  169  TRP169      0.0001
     14  CH2       44.2650    0.1400   20.4320 C.ar  169  TRP169      0.0015
     15  N         39.9660    0.9510   18.3080 N.am  170  ASN170     -0.1960
     16  CA        40.8010    0.2140   17.3570 C.3   170  ASN170      0.1819
     17  C         40.1010   -0.1720   16.0440 C.2   170  ASN170      0.2621
     18  O         40.4820   -1.1440   15.3940 O.2   170  ASN170     -0.2715
     19  CB        41.3810   -1.0140   18.0770 C.3   170  ASN170      0.1195
     20  CG        42.5730   -1.6420   17.3590 C.2   170  ASN170      0.2630
     21  OD1       42.7060   -2.8660   17.3670 O.2   170  ASN170     -0.2716
     22  ND2       43.4580   -0.8340   16.7800 N.am  170  ASN170     -0.0877
     23  N         39.0700    0.5880   15.6710 N.am  171  GLN171     -0.1963
     24  CA        38.3250    0.3680   14.4330 C.3   171  GLN171      0.1733
     25  C         38.3760    1.6400   13.5970 C.2   171  GLN171      0.2617
     26  O         38.3600    2.7510   14.1360 O.2   171  GLN171     -0.2715
     27  CB        36.8540    0.0480   14.7290 C.3   171  GLN171      0.0408
     28  CG        36.6360   -1.2410   15.5030 C.3   171  GLN171      0.0908
     29  CD        37.1070   -2.4820   14.7500 C.2   171  GLN171      0.2608
     30  OE1       37.7990   -3.3420   15.3090 O.2   171  GLN171     -0.2717
     31  NE2       36.7370   -2.5850   13.4860 N.am  171  GLN171     -0.0878
     32  N         38.3750    1.4910   12.2780 N.am  172  THR172     -0.1951
     33  CA        38.3910    2.6550   11.4110 C.3   172  THR172      0.1897
     34  C         37.0740    3.4420   11.4980 C.2   172  THR172      0.2313
     35  O         36.0640    2.9300   11.9980 O.2   172  THR172     -0.2863
     36  CB        38.6370    2.2320    9.9570 C.3   172  THR172      0.1794
     37  OG1       37.6610    1.2450    9.5710 O.3   172  THR172     -0.2208
     38  CG2       40.0530    1.6550    9.8120 C.3   172  THR172      0.0378
     39  N         42.1590    5.7420   10.1390 N.3   183  SER183     -0.1217
     40  CA        42.4870    5.8980   11.5610 C.3   183  SER183      0.1889
     41  C         43.1880    7.2460   11.6320 C.2   183  SER183      0.2288
     42  O         44.1920    7.4580   10.9480 O.2   183  SER183     -0.2866
     43  CB        43.3960    4.7780   12.0390 C.3   183  SER183      0.2089
     44  OG        43.4910    4.8340   13.4490 O.3   183  SER183     -0.2183
     45  N         46.9850    1.2530   25.8410 N.3   218  GLN218     -0.1245
     46  CA        47.0130    0.6670   24.4970 C.3   218  GLN218      0.1566
     47  C         46.7410    1.7030   23.4130 C.2   218  GLN218      0.2260
     48  O         47.2810    1.6160   22.3050 O.2   218  GLN218     -0.2867
     49  CB        46.0400   -0.5070   24.3880 C.3   218  GLN218      0.0367
     50  CG        46.5000   -1.7230   25.1770 C.3   218  GLN218      0.0905
     51  CD        47.9030   -2.1640   24.7810 C.2   218  GLN218      0.2608
     52  OE1       48.2930   -2.0720   23.6160 O.2   218  GLN218     -0.2717
     53  NE2       48.6750   -2.6250   25.7530 N.am  218  GLN218     -0.0878
     54  N         49.4780    2.8100   20.4600 N.3   222  TYR222     -0.1241
     55  CA        49.1590    2.9770   19.0460 C.3   222  TYR222      0.1605
     56  C         49.4410    4.4090   18.5600 C.2   222  TYR222      0.2264
     57  O         49.9070    4.6110   17.4390 O.2   222  TYR222     -0.2867
     58  CB        47.6810    2.6110   18.8140 C.3   222  TYR222      0.0534
     59  CG        47.1860    2.8640   17.4160 C.ar  222  TYR222     -0.0201
     60  CD1       47.9290    2.4520   16.3030 C.ar  222  TYR222     -0.0009
     61  CD2       45.9620    3.5100   17.1970 C.ar  222  TYR222     -0.0009
     62  CE1       47.4750    2.6720   15.0100 C.ar  222  TYR222      0.0417
     63  CE2       45.4980    3.7380   15.9130 C.ar  222  TYR222      0.0417
     64  CZ        46.2580    3.3130   14.8190 C.ar  222  TYR222      0.1957
     65  OH        45.7930    3.5140   13.5420 O.3   222  TYR222     -0.2866
     66  N         52.6580    5.3300   16.6090 N.3   225  SER225     -0.1202
     67  CA        52.7970    4.9780   15.1940 C.3   225  SER225      0.2020
     68  C         52.5680    6.1410   14.2340 C.2   225  SER225      0.2619
     69  O         52.9060    6.0540   13.0610 O.2   225  SER225     -0.2717
     70  CB        51.8120    3.8630   14.8220 C.3   225  SER225      0.2103
     71  OG        52.1970    2.6230   15.3690 O.3   225  SER225     -0.2182
     72  N         51.9570    7.2150   14.7170 N.am  226  PHE226     -0.1961
     73  CA        51.6710    8.3580   13.8630 C.3   226  PHE226      0.1771
     74  C         52.8900    9.2410   13.6060 C.2   226  PHE226      0.2620
     75  O         52.8600   10.0870   12.7160 O.2   226  PHE226     -0.2715
     76  CB        50.5020    9.1820   14.4130 C.3   226  PHE226      0.0574
     77  CG        49.1660    8.4800   14.3240 C.ar  226  PHE226     -0.0200
     78  CD1       48.7490    7.6140   15.3330 C.ar  226  PHE226     -0.0042
     79  CD2       48.3250    8.6970   13.2360 C.ar  226  PHE226     -0.0042
     80  CE1       47.5030    6.9660   15.2640 C.ar  226  PHE226     -0.0003
     81  CE2       47.0800    8.0610   13.1540 C.ar  226  PHE226     -0.0003
     82  CZ        46.6670    7.1980   14.1680 C.ar  226  PHE226     -0.0000
     83  N         53.9510    9.0710   14.3930 N.am  227  TRP227     -0.1960
     84  CA        55.1710    9.8630   14.1950 C.3   227  TRP227      0.1771
     85  C         55.9690    9.2300   13.0430 C.2   227  TRP227      0.2620
     86  O         56.3450    8.0530   13.1170 O.2   227  TRP227     -0.2715
     87  CB        56.0120    9.8800   15.4750 C.3   227  TRP227      0.0590
     88  CG        57.3430   10.5680   15.3010 C.ar  227  TRP227      0.0006
     89  CD1       58.5870    9.9990   15.4190 C.ar  227  TRP227      0.0946
     90  CD2       57.5640   11.9500   14.9850 C.ar  227  TRP227      0.0152
     91  NE1       59.5620   10.9460   15.1950 N.ar  227  TRP227     -0.2442
     92  CE2       58.9640   12.1500   14.9270 C.ar  227  TRP227      0.0810
     93  CE3       56.7140   13.0410   14.7510 C.ar  227  TRP227      0.0012
     94  CZ2       59.5350   13.3980   14.6460 C.ar  227  TRP227      0.0191
     95  CZ3       57.2830   14.2840   14.4730 C.ar  227  TRP227      0.0001
     96  CH2       58.6820   14.4490   14.4220 C.ar  227  TRP227      0.0015
     97  N         56.2230   10.0020   11.9870 N.am  228  THR228     -0.1951
     98  CA        56.9420    9.4810   10.8230 C.3   228  THR228      0.1897
     99  C         58.4520    9.6230   10.9340 C.2   228  THR228      0.2313
    100  O         59.1870    9.0160   10.1600 O.2   228  THR228     -0.2863
    101  CB        56.5480   10.2270    9.5240 C.3   228  THR228      0.1794
    102  OG1       57.1100   11.5500    9.5450 O.3   228  THR228     -0.2208
    103  CG2       55.0330   10.3270    9.3850 C.3   228  THR228      0.0378
    104  N         51.7770   12.0330   11.0850 N.3   233  LEU233     -0.1245
    105  CA        50.8910   11.5850   10.0190 C.3   233  LEU233      0.1561
    106  C         49.4540   11.8300   10.4970 C.2   233  LEU233      0.2260
    107  O         49.0770   11.3700   11.5730 O.2   233  LEU233     -0.2867
    108  CB        51.1000   10.0880    9.7860 C.3   233  LEU233      0.0270
    109  CG        50.4080    9.4530    8.5840 C.3   233  LEU233      0.0019
    110  CD1       51.0650    9.9600    7.3170 C.3   233  LEU233      0.0001
    111  CD2       50.5280    7.9310    8.6630 C.3   233  LEU233      0.0001
    112  N         46.5220   10.7290    9.0660 N.3   235  ASN235     -0.1225
    113  CA        45.6700    9.5420    8.9270 C.3   235  ASN235      0.1785
    114  C         46.3640    8.3570    8.2800 C.2   235  ASN235      0.2597
    115  O         47.1880    8.5280    7.3860 O.2   235  ASN235     -0.2718
    116  CB        44.4670    9.8240    7.9880 C.3   235  ASN235      0.1169
    117  CG        43.5630   10.9390    8.4740 C.2   235  ASN235      0.2627
    118  OD1       42.7170   10.7190    9.3270 O.2   235  ASN235     -0.2716
    119  ND2       43.7110   12.1270    7.9040 N.am  235  ASN235     -0.0877
    120  N         46.0240    7.1600    8.7390 N.am  236  PHE236     -0.1962
    121  CA        46.4940    5.9510    8.0860 C.3   236  PHE236      0.1771
    122  C         45.3510    5.7000    7.0960 C.2   236  PHE236      0.2620
    123  O         44.2440    6.2180    7.2860 O.2   236  PHE236     -0.2715
    124  CB        46.6120    4.7900    9.0660 C.3   236  PHE236      0.0574
    125  CG        47.8710    4.8180    9.8700 C.ar  236  PHE236     -0.0200
    126  CD1       49.1030    4.6040    9.2540 C.ar  236  PHE236     -0.0042
    127  CD2       47.8380    5.0910   11.2310 C.ar  236  PHE236     -0.0042
    128  CE1       50.2850    4.6680    9.9860 C.ar  236  PHE236     -0.0003
    129  CE2       49.0160    5.1560   11.9790 C.ar  236  PHE236     -0.0003
    130  CZ        50.2390    4.9450   11.3540 C.ar  236  PHE236     -0.0000
    131  N         45.6330    4.9610    6.0270 N.am  237  ASP237     -0.1957
    132  CA        44.6600    4.6260    4.9830 C.3   237  ASP237      0.1840
    133  C         44.3400    5.8200    4.0970 C.2   237  ASP237      0.2622
    134  O         43.2540    5.9070    3.5250 O.2   237  ASP237     -0.2715
    135  CB        43.3540    4.0660    5.5740 C.3   237  ASP237      0.1450
    136  CG        43.5920    2.9570    6.5780 C.2   237  ASP237      0.3671
    137  OD1       44.3030    1.9760    6.2540 O.co2 237  ASP237     -0.2456
    138  OD2       43.0720    3.0740    7.7070 O.co2 237  ASP237     -0.2456
    139  N         45.2850    6.7420    3.9860 N.am  238  SER238     -0.1950
    140  CA        45.1010    7.9250    3.1630 C.3   238  SER238      0.1924
    141  C         46.2480    8.0120    2.1550 C.2   238  SER238      0.2314
    142  O         47.3650    7.5770    2.4310 O.2   238  SER238     -0.2863
    143  CB        45.0860    9.1760    4.0390 C.3   238  SER238      0.2116
    144  OG        44.9710   10.3530    3.2600 O.3   238  SER238     -0.2180
    145  N         47.1790   10.9860    0.9110 N.3   240  ARG240     -0.1245
    146  CA        47.7140   12.3420    1.0150 C.3   240  ARG240      0.1563
    147  C         49.1030   12.3520    1.6640 C.2   240  ARG240      0.2260
    148  O         49.5980   11.3170    2.1190 O.2   240  ARG240     -0.2867
    149  CB        46.7790   13.1970    1.8590 C.3   240  ARG240      0.0307
    150  CG        45.3690   13.2650    1.3530 C.3   240  ARG240      0.0489
    151  CD        44.5380   14.0030    2.3650 C.3   240  ARG240      0.2205
    152  NE        43.1190   14.0330    2.0360 N.pl3 240  ARG240     -0.0865
    153  CZ        42.1740   14.3660    2.9130 C.cat 240  ARG240      0.5346
    154  NH1       42.5160   14.6870    4.1560 N.pl3 240  ARG240      0.1354
    155  NH2       40.8930   14.3860    2.5490 N.pl3 240  ARG240      0.1354
    156  N         54.8210   -3.3740   24.4000 N.3   447  THR447     -0.1203
    157  CA        54.2370   -4.0290   23.2320 C.3   447  THR447      0.1994
    158  C         52.7920   -3.5570   23.0690 C.2   447  THR447      0.2618
    159  O         52.0350   -3.5320   24.0390 O.2   447  THR447     -0.2717
    160  CB        54.2650   -5.5810   23.3880 C.3   447  THR447      0.1784
    161  OG1       55.6180   -6.0140   23.6030 O.3   447  THR447     -0.2211
    162  CG2       53.7140   -6.2710   22.1350 C.3   447  THR447      0.0376
    163  N         52.4350   -3.1430   21.8560 N.am  448  CYS448     -0.1955
    164  CA        51.0810   -2.6780   21.5690 C.3   448  CYS448      0.1843
    165  C         50.2220   -3.8600   21.1420 C.2   448  CYS448      0.2625
    166  O         50.6970   -4.7530   20.4460 O.2   448  CYS448     -0.2714
    167  CB        51.0790   -1.6620   20.4300 C.3   448  CYS448      0.0997
    168  SG        52.1830   -0.2310   20.6240 S.3   448  CYS448     -0.0797
    169  N         48.9500   -3.8470   21.5290 N.am  449  ALA449     -0.1963
    170  CA        48.0280   -4.9120   21.1620 C.3   449  ALA449      0.1728
    171  C         46.8070   -4.3090   20.4850 C.2   449  ALA449      0.2616
    172  O         46.4130   -3.1870   20.8110 O.2   449  ALA449     -0.2715
    173  CB        47.5990   -5.6810   22.4060 C.3   449  ALA449      0.0334
    174  N         46.2860   -5.0050   19.4770 N.am  450  ALA450     -0.1977
    175  CA        45.0650   -4.5910   18.7780 C.3   450  ALA450      0.1597
    176  C         44.0530   -5.1960   19.7420 C.2   450  ALA450      0.2287
    177  O         43.9430   -6.4270   19.8400 O.2   450  ALA450     -0.2864
    178  CB        44.9740   -5.2640   17.4220 C.3   450  ALA450      0.0319
@<TRIPOS>BOND
     1   145   146    1
     2   146   147    1
     3   146   149    1
     4   150   149    1
     5   150   151    1
     6   147   148    2
     7   152   151    1
     8   152   153    2
     9   141   142    2
    10   141   140    1
    11   155   153    1
    12   153   154    1
    13   140   139    1
    14   140   143    1
    15   144   143    1
    16   134   133    2
    17   139   133   am
    18   133   132    1
    19   132   135    1
    20   132   131    1
    21   135   136    1
    22   131   122   am
    23   137   136   ar
    24   136   138   ar
    25   122   123    2
    26   122   121    1
    27   110   109    1
    28   115   114    2
    29   119   117   am
    30   116   117    1
    31   116   113    1
    32   121   120    1
    33   121   124    1
    34   114   120   am
    35   114   113    1
    36   117   118    2
    37   109   111    1
    38   109   108    1
    39   113   112    1
    40   124   125    1
    41   126   125   ar
    42   126   128   ar
    43   103   101    1
    44   101   102    1
    45   101    98    1
    46    37    36    1
    47   108   105    1
    48    38    36    1
    49   125   127   ar
    50    36    33    1
    51   128   130   ar
    52   105   106    1
    53   105   104    1
    54    39    40    1
    55   100    99    2
    56   106   107    2
    57    98    99    1
    58    98    97    1
    59    42    41    2
    60   127   129   ar
    61   130   129   ar
    62    33    34    1
    63    33    32    1
    64    34    35    2
    65    40    41    1
    66    40    43    1
    67    97    85   am
    68    43    44    1
    69    32    25   am
    70    75    74    2
    71    85    86    2
    72    85    84    1
    73    69    68    2
    74    81    79   ar
    75    81    82   ar
    76    79    77   ar
    77    31    29   am
    78    65    64    1
    79    25    26    2
    80    25    24    1
    81    74    73    1
    82    74    83   am
    83    73    76    1
    84    73    72    1
    85    82    80   ar
    86    84    83    1
    87    84    87    1
    88    68    72   am
    89    68    67    1
    90    77    76    1
    91    77    78   ar
    92    96    95   ar
    93    96    94   ar
    94    24    27    1
    95    24    23    1
    96    95    93   ar
    97    94    92   ar
    98    27    28    1
    99    29    30    2
   100    29    28    1
   101    93    90   ar
   102    64    62   ar
   103    64    63   ar
   104    70    67    1
   105    70    71    1
   106    92    90   ar
   107    92    91   ar
   108    90    88   ar
   109    62    60   ar
   110    67    66    1
   111    91    89   ar
   112    80    78   ar
   113    88    89   ar
   114    88    87    1
   115    18    17    2
   116    23    17   am
   117    63    61   ar
   118    17    16    1
   119    60    59   ar
   120    22    20   am
   121    61    59   ar
   122    16    19    1
   123    16    15    1
   124    20    21    2
   125    20    19    1
   126    59    58    1
   127     4     3    2
   128   178   175    1
   129    57    56    2
   130     3    15   am
   131     3     2    1
   132    56    55    1
   133   175   174    1
   134   175   176    1
   135    58    55    1
   136    55    54    1
   137     2     1    1
   138     2     5    1
   139   174   171   am
   140    13    11   ar
   141    13    14   ar
   142    11     8   ar
   143   176   177    2
   144   167   168    1
   145   167   164    1
   146    14    12   ar
   147   166   165    2
   148   171   172    2
   149   171   170    1
   150     5     6    1
   151     8     6   ar
   152     8    10   ar
   153   165   169   am
   154   165   164    1
   155   170   169    1
   156   170   173    1
   157     6     7   ar
   158    12    10   ar
   159   164   163    1
   160    10     9   ar
   161   163   158   am
   162   162   160    1
   163     7     9   ar
   164    48    47    2
   165   158   157    1
   166   158   159    2
   167   157   160    1
   168   157   156    1
   169   160   161    1
   170    47    46    1
   171    52    51    2
   172    49    46    1
   173    49    50    1
   174    46    45    1
   175    51    50    1
   176    51    53   am
