@<TRIPOS>MOLECULE
tmp/1ganB00.pdb
 96 90 0 0 0
SMALL
GASTEIGER

@<TRIPOS>ATOM
      1  N         52.9250    4.7300   67.3130 N.3    45  HIS45      -0.1241
      2  CA        51.5390    4.3420   67.4320 C.3    45  HIS45       0.1621
      3  C         51.6340    2.8270   67.6490 C.2    45  HIS45       0.2264
      4  O         52.1230    2.0950   66.8070 O.2    45  HIS45      -0.2867
      5  CB        50.7630    4.6970   66.1650 C.3    45  HIS45       0.0745
      6  CG        49.5170    3.8880   65.9560 C.ar   45  HIS45       0.0817
      7  ND1       48.2880    4.2710   66.4580 N.ar   45  HIS45      -0.2268
      8  CD2       49.2930    2.7680   65.2140 C.ar   45  HIS45       0.1154
      9  CE1       47.3610    3.4270   66.0230 C.ar   45  HIS45       0.1986
     10  NE2       47.9430    2.5110   65.2650 N.ar   45  HIS45      -0.2212
     11  N         49.5590   -0.3240   68.2110 N.3    47  ASN47      -0.1240
     12  CA        48.2040   -0.8400   68.0450 C.3    47  ASN47       0.1653
     13  C         48.1450   -2.3520   68.2360 C.2    47  ASN47       0.2266
     14  O         48.7540   -3.1000   67.4830 O.2    47  ASN47      -0.2867
     15  CB        47.7100   -0.4680   66.6480 C.3    47  ASN47       0.1155
     16  CG        46.2130   -0.6060   66.4870 C.2    47  ASN47       0.2627
     17  OD1       45.7030   -0.4970   65.3850 O.2    47  ASN47      -0.2716
     18  ND2       45.4970   -0.7970   67.5770 N.am   47  ASN47      -0.0877
     19  N         46.0410   -5.4370   67.8990 N.3    49  ARG49      -0.1245
     20  CA        44.8570   -5.8280   67.1590 C.3    49  ARG49       0.1563
     21  C         44.3650   -7.2400   67.4820 C.2    49  ARG49       0.2260
     22  O         45.0020   -8.2440   67.1390 O.2    49  ARG49      -0.2867
     23  CB        45.1250   -5.6940   65.6420 C.3    49  ARG49       0.0307
     24  CG        45.5090   -4.2730   65.2010 C.3    49  ARG49       0.0489
     25  CD        45.6540   -4.0930   63.6850 C.3    49  ARG49       0.2205
     26  NE        46.0200   -2.7060   63.3520 N.pl3  49  ARG49      -0.0865
     27  CZ        46.2610   -2.2360   62.1260 C.cat  49  ARG49       0.5346
     28  NH1       46.1860   -3.0360   61.0670 N.pl3  49  ARG49       0.1354
     29  NH2       46.5150   -0.9440   61.9500 N.pl3  49  ARG49       0.1354
     30  N         41.0110   -4.5770   61.1900 N.3    53  HIS53      -0.1241
     31  CA        41.5490   -4.3260   59.8450 C.3    53  HIS53       0.1621
     32  C         42.0210   -5.6040   59.1730 C.2    53  HIS53       0.2264
     33  O         42.9770   -5.5890   58.4130 O.2    53  HIS53      -0.2867
     34  CB        42.7040   -3.3020   59.8570 C.3    53  HIS53       0.0745
     35  CG        42.4110   -2.0570   60.6330 C.ar   53  HIS53       0.0817
     36  ND1       41.3000   -1.2750   60.4060 N.ar   53  HIS53      -0.2268
     37  CD2       43.0870   -1.4580   61.6450 C.ar   53  HIS53       0.1154
     38  CE1       41.3030   -0.2490   61.2400 C.ar   53  HIS53       0.1986
     39  NE2       42.3770   -0.3360   62.0030 N.ar   53  HIS53      -0.2212
     40  N         43.4840   -8.0080   60.5820 N.3    55  ASP55      -0.1239
     41  CA        44.5510   -8.5840   61.4030 C.3    55  ASP55       0.1674
     42  C         43.8880   -9.2580   62.5940 C.2    55  ASP55       0.2266
     43  O         42.8480   -8.8090   63.0700 O.2    55  ASP55      -0.2867
     44  CB        45.5160   -7.4850   61.8990 C.3    55  ASP55       0.1410
     45  CG        46.4140   -6.9440   60.7900 C.2    55  ASP55       0.3668
     46  OD1       47.1700   -7.7320   60.2240 O.co2  55  ASP55      -0.2456
     47  OD2       46.3680   -5.7530   60.4620 O.co2  55  ASP55      -0.2456
     48  N         50.8400   -3.9050   65.5930 N.3    60  VAL60      -0.1245
     49  CA        51.2980   -3.1060   64.4760 C.3    60  VAL60       0.1561
     50  C         51.7470   -1.7830   65.0530 C.2    60  VAL60       0.2260
     51  O         50.9910   -1.1480   65.7910 O.2    60  VAL60      -0.2867
     52  CB        50.1440   -2.8130   63.4660 C.3    60  VAL60       0.0252
     53  CG1       50.6730   -2.0700   62.2870 C.3    60  VAL60       0.0019
     54  CG2       49.4470   -4.1010   62.9980 C.3    60  VAL60       0.0019
     55  N         53.8450    2.0180   64.0850 N.3    62  ASN62      -0.1240
     56  CA        54.1070    2.9090   62.9610 C.3    62  ASN62       0.1653
     57  C         54.2400    4.3030   63.5410 C.2    62  ASN62       0.2266
     58  O         54.0310    4.4930   64.7450 O.2    62  ASN62      -0.2867
     59  CB        52.9110    2.8870   62.0030 C.3    62  ASN62       0.1155
     60  CG        53.2800    3.2850   60.5970 C.2    62  ASN62       0.2627
     61  OD1       54.4150    3.7270   60.3250 O.2    62  ASN62      -0.2716
     62  ND2       52.3390    3.0890   59.6720 N.am   62  ASN62      -0.0877
     63  N         50.5130    8.1140   57.6190 N.3    69  TRP69      -0.1241
     64  CA        51.1810    7.0070   58.3220 C.3    69  TRP69       0.1605
     65  C         52.4550    6.6040   57.5990 C.2    69  TRP69       0.2264
     66  O         52.4800    6.6300   56.3810 O.2    69  TRP69      -0.2867
     67  CB        50.2780    5.7930   58.3620 C.3    69  TRP69       0.0550
     68  CG        49.0610    5.9880   59.1990 C.ar   69  TRP69       0.0003
     69  CD1       47.7830    6.1870   58.7640 C.ar   69  TRP69       0.0946
     70  CD2       49.0070    6.0030   60.6320 C.ar   69  TRP69       0.0152
     71  NE1       46.9410    6.3310   59.8350 N.ar   69  TRP69      -0.2442
     72  CE2       47.6590    6.2180   60.9950 C.ar   69  TRP69       0.0810
     73  CE3       49.9680    5.8560   61.6440 C.ar   69  TRP69       0.0012
     74  CZ2       47.2460    6.2910   62.3310 C.ar   69  TRP69       0.0191
     75  CZ3       49.5550    5.9320   62.9690 C.ar   69  TRP69       0.0001
     76  CH2       48.2060    6.1460   63.2970 C.ar   69  TRP69       0.0015
     77  N         54.8270    0.4000   58.4860 N.3    72  GLU72      -0.1245
     78  CA        54.4450   -0.4310   59.6180 C.3    72  GLU72       0.1567
     79  C         55.4780   -1.4570   60.0160 C.2    72  GLU72       0.2260
     80  O         56.1770   -2.0190   59.1660 O.2    72  GLU72      -0.2867
     81  CB        53.1410   -1.1830   59.3370 C.3    72  GLU72       0.0388
     82  CG        51.9230   -0.2990   59.2320 C.3    72  GLU72       0.1160
     83  CD        50.6410   -1.0660   58.9360 C.2    72  GLU72       0.3649
     84  OE1       50.7200   -2.2800   58.6610 O.co2  72  GLU72      -0.2457
     85  OE2       49.5470   -0.4570   58.9910 O.co2  72  GLU72      -0.2457
     86  N         55.5020   -4.9250   62.1210 N.3    74  ARG74      -0.1245
     87  CA        54.6090   -5.9030   62.6990 C.3    74  ARG74       0.1563
     88  C         55.3530   -6.8830   63.5920 C.2    74  ARG74       0.2260
     89  O         56.4910   -7.2490   63.3040 O.2    74  ARG74      -0.2867
     90  CB        53.8360   -6.5710   61.5830 C.3    74  ARG74       0.0307
     91  CG        52.7100   -5.6940   61.1320 C.3    74  ARG74       0.0489
     92  CD        52.3510   -5.8700   59.6920 C.3    74  ARG74       0.2205
     93  NE        51.1830   -5.0600   59.3260 N.pl3  74  ARG74      -0.0865
     94  CZ        49.9320   -5.4680   59.4890 C.cat  74  ARG74       0.5346
     95  NH1       49.7040   -6.6690   60.0130 N.pl3  74  ARG74       0.1354
     96  NH2       48.9220   -4.6960   59.1370 N.pl3  74  ARG74       0.1354
@<TRIPOS>BOND
     1    66    65    2
     2    65    64    1
     3    63    64    1
     4    64    67    1
     5    67    68    1
     6    33    32    2
     7    77    78    1
     8    84    83   ar
     9    69    68   ar
    10    69    71   ar
    11    83    85   ar
    12    83    82    1
    13    96    94    1
    14    80    79    2
    15    32    31    1
    16    68    70   ar
    17    82    81    1
    18    93    94    2
    19    93    92    1
    20    81    78    1
    21    94    95    1
    22    78    79    1
    23    62    60   am
    24    92    91    1
    25    71    72   ar
    26    31    34    1
    27    31    30    1
    28    34    35    1
    29    46    45   ar
    30    61    60    2
    31    36    35   ar
    32    36    38   ar
    33    47    45   ar
    34    40    41    1
    35    60    59    1
    36    70    72   ar
    37    70    73   ar
    38    35    37   ar
    39    45    44    1
    40    72    74   ar
    41    28    27    1
    42    91    90    1
    43    38    39   ar
    44    41    44    1
    45    41    42    1
    46    90    87    1
    47    73    75   ar
    48    37    39   ar
    49    29    27    1
    50    59    56    1
    51    86    87    1
    52    27    26    2
    53    53    52    1
    54    74    76   ar
    55    42    43    2
    56    87    88    1
    57    56    57    1
    58    56    55    1
    59    75    76   ar
    60    54    52    1
    61    89    88    2
    62    26    25    1
    63    52    49    1
    64    57    58    2
    65    25    24    1
    66    49    50    1
    67    49    48    1
    68    50    51    2
    69    24    23    1
    70     8    10   ar
    71     8     6   ar
    72    10     9   ar
    73    17    16    2
    74    23    20    1
    75     6     5    1
    76     6     7   ar
    77     9     7   ar
    78     5     2    1
    79    16    15    1
    80    16    18   am
    81    15    12    1
    82     4     3    2
    83    22    21    2
    84    20    21    1
    85    20    19    1
    86     1     2    1
    87     2     3    1
    88    14    13    2
    89    12    11    1
    90    12    13    1
