@<TRIPOS>MOLECULE
tmp/1gaxC00.pdb
 190 188 0 0 0
SMALL
GASTEIGER

@<TRIPOS>ATOM
      1  N         91.8000   37.4190   17.8170 N.3    41  PRO41      -0.2103
      2  CA        91.2800   36.9470   19.1000 C.3    41  PRO41       0.1489
      3  C         89.7610   36.9520   18.9260 C.2    41  PRO41       0.2418
      4  O         89.1430   38.0080   18.7260 O.2    41  PRO41      -0.2734
      5  CB        91.7780   38.0080   20.0720 C.3    41  PRO41       0.0282
      6  CG        91.8200   39.2430   19.2310 C.3    41  PRO41       0.0208
      7  CD        92.4500   38.7300   17.9660 C.3    41  PRO41       0.0893
      8  N         89.1420   35.7690   18.9730 N.am   42  PRO42      -0.2719
      9  CA        87.6890   35.6620   18.8020 C.3    42  PRO42       0.1520
     10  C         86.8030   36.3000   19.8610 C.2    42  PRO42       0.2440
     11  O         86.7720   35.8620   21.0040 O.2    42  PRO42      -0.2731
     12  CB        87.4600   34.1570   18.6930 C.3    42  PRO42       0.0310
     13  CG        88.5660   33.6000   19.5400 C.3    42  PRO42       0.0237
     14  CD        89.7570   34.4480   19.1710 C.3    42  PRO42       0.0939
     15  N         86.0780   37.3610   19.4890 N.am   43  PRO43      -0.2716
     16  CA        85.1620   38.0920   20.3720 C.3    43  PRO43       0.1536
     17  C         84.0990   37.1800   21.0090 C.2    43  PRO43       0.2598
     18  O         83.5730   36.2790   20.3600 O.2    43  PRO43      -0.2715
     19  CB        84.5530   39.1220   19.4300 C.3    43  PRO43       0.0310
     20  CG        85.7350   39.4750   18.5790 C.3    43  PRO43       0.0237
     21  CD        86.3250   38.1240   18.2540 C.3    43  PRO43       0.0939
     22  N         83.7830   37.4140   22.2780 N.am   44  ASN44      -0.1973
     23  CA        82.7940   36.5850   22.9560 C.3    44  ASN44       0.1688
     24  C         81.3890   36.8730   22.4410 C.2    44  ASN44       0.2292
     25  O         81.0080   38.0240   22.2530 O.2    44  ASN44      -0.2864
     26  CB        82.8490   36.8070   24.4750 C.3    44  ASN44       0.1181
     27  CG        84.2260   36.5210   25.0630 C.2    44  ASN44       0.2629
     28  OD1       84.8220   35.4650   24.8320 O.2    44  ASN44      -0.2716
     29  ND2       84.7280   37.4620   25.8370 N.am   44  ASN44      -0.0877
     30  N         82.7660   46.7490   21.2400 N.3    50  HIS50      -0.1241
     31  CA        82.8940   48.0890   21.7840 C.3    50  HIS50       0.1621
     32  C         84.2170   48.6270   21.2910 C.2    50  HIS50       0.2264
     33  O         85.0270   47.8850   20.7250 O.2    50  HIS50      -0.2867
     34  CB        82.8550   48.0670   23.3080 C.3    50  HIS50       0.0745
     35  CG        83.9430   47.2500   23.9270 C.ar   50  HIS50       0.0817
     36  ND1       83.6890   46.1610   24.7330 N.ar   50  HIS50      -0.2268
     37  CD2       85.2910   47.3690   23.8690 C.ar   50  HIS50       0.1154
     38  CE1       84.8350   45.6450   25.1450 C.ar   50  HIS50       0.1986
     39  NE2       85.8220   46.3600   24.6360 N.ar   50  HIS50      -0.2212
     40  N         86.9270   48.8890   22.2970 N.3    52  GLY52      -0.1210
     41  CA        88.1330   48.1290   22.5940 C.3    52  GLY52       0.1956
     42  C         88.4790   47.2360   21.4190 C.2    52  GLY52       0.2611
     43  O         89.5900   47.2740   20.8760 O.2    52  GLY52      -0.2717
     44  N         87.5030   46.4260   21.0300 N.am   53  HIS53      -0.1975
     45  CA        87.6540   45.5250   19.9070 C.3    53  HIS53       0.1656
     46  C         88.1570   46.3410   18.7170 C.2    53  HIS53       0.2291
     47  O         89.1230   45.9650   18.0420 O.2    53  HIS53      -0.2864
     48  CB        86.2960   44.8960   19.5800 C.3    53  HIS53       0.0771
     49  CG        85.7110   44.1140   20.7120 C.ar   53  HIS53       0.0820
     50  ND1       84.3770   44.1800   21.0510 N.ar   53  HIS53      -0.2267
     51  CD2       86.2800   43.2500   21.5870 C.ar   53  HIS53       0.1154
     52  CE1       84.1490   43.3910   22.0880 C.ar   53  HIS53       0.1986
     53  NE2       85.2870   42.8150   22.4320 N.ar   53  HIS53      -0.2212
     54  N         89.9100   49.0050   18.4380 N.3    55  LEU55      -0.1231
     55  CA        91.3400   49.2670   18.4690 C.3    55  LEU55       0.1693
     56  C         92.0820   47.9740   18.1460 C.2    55  LEU55       0.2592
     57  O         93.0510   47.9590   17.3790 O.2    55  LEU55      -0.2718
     58  CB        91.7640   49.7450   19.8560 C.3    55  LEU55       0.0284
     59  CG        93.2570   49.5110   20.0930 C.3    55  LEU55       0.0019
     60  CD1       94.0490   50.6420   19.4800 C.3    55  LEU55       0.0001
     61  CD2       93.5380   49.3930   21.5740 C.3    55  LEU55       0.0001
     62  N         91.6140   46.8900   18.7520 N.am   56  ASP56      -0.1974
     63  CA        92.2230   45.5860   18.5700 C.3    56  ASP56       0.1709
     64  C         92.2400   45.1110   17.1160 C.2    56  ASP56       0.2293
     65  O         93.2810   44.7070   16.6070 O.2    56  ASP56      -0.2864
     66  CB        91.4990   44.5690   19.4450 C.3    56  ASP56       0.1436
     67  CG        92.1240   43.1950   19.3790 C.2    56  ASP56       0.3671
     68  OD1       93.3510   43.0900   19.6210 O.co2  56  ASP56      -0.2456
     69  OD2       91.3810   42.2250   19.0930 O.co2  56  ASP56      -0.2456
     70  N         84.4520   33.5000   19.9200 N.3    81  ASP81      -0.1239
     71  CA        84.4360   32.5770   21.0610 C.3    81  ASP81       0.1674
     72  C         83.0460   32.4710   21.6970 C.2    81  ASP81       0.2266
     73  O         82.3590   33.4750   21.8600 O.2    81  ASP81      -0.2867
     74  CB        85.4520   33.0370   22.1110 C.3    81  ASP81       0.1410
     75  CG        85.6770   32.0080   23.2070 C.2    81  ASP81       0.3668
     76  OD1       86.5760   32.2310   24.0510 O.co2  81  ASP81      -0.2456
     77  OD2       84.9640   30.9800   23.2350 O.co2  81  ASP81      -0.2456
     78  N         88.3260   28.9470   28.3940 N.3   456  TRP456     -0.1241
     79  CA        89.7280   29.2270   28.2220 C.3   456  TRP456      0.1605
     80  C         90.5270   28.0070   27.7870 C.2   456  TRP456      0.2264
     81  O         91.6420   28.1460   27.2790 O.2   456  TRP456     -0.2867
     82  CB        90.2780   29.8580   29.5020 C.3   456  TRP456      0.0550
     83  CG        89.5780   31.1470   29.7700 C.ar  456  TRP456      0.0003
     84  CD1       88.5260   31.3570   30.6190 C.ar  456  TRP456      0.0946
     85  CD2       89.7560   32.3670   29.0480 C.ar  456  TRP456      0.0152
     86  NE1       88.0320   32.6300   30.4610 N.ar  456  TRP456     -0.2442
     87  CE2       88.7680   33.2700   29.4990 C.ar  456  TRP456      0.0810
     88  CE3       90.6490   32.7830   28.0510 C.ar  456  TRP456      0.0012
     89  CZ2       88.6500   34.5610   28.9860 C.ar  456  TRP456      0.0191
     90  CZ3       90.5320   34.0600   27.5420 C.ar  456  TRP456      0.0001
     91  CH2       89.5380   34.9370   28.0100 C.ar  456  TRP456      0.0015
     92  N         89.8580   28.0130   23.8250 N.3   459  SER459     -0.1217
     93  CA        90.5150   29.2020   23.3270 C.3   459  SER459      0.1889
     94  C         92.0350   29.0290   23.2750 C.2   459  SER459      0.2288
     95  O         92.6710   29.3990   22.2990 O.2   459  SER459     -0.2866
     96  CB        90.1440   30.3770   24.2200 C.3   459  SER459      0.2089
     97  OG        88.7350   30.4340   24.3810 O.3   459  SER459     -0.2183
     98  N         96.7670   41.4740   20.7190 N.3   487  THR487     -0.1203
     99  CA        95.7990   41.4270   21.8050 C.3   487  THR487      0.1994
    100  C         96.2010   42.3920   22.9220 C.2   487  THR487      0.2618
    101  O         97.3560   42.8270   23.0180 O.2   487  THR487     -0.2717
    102  CB        95.7040   40.0280   22.4120 C.3   487  THR487      0.1784
    103  OG1       94.5870   39.9690   23.3060 O.3   487  THR487     -0.2211
    104  CG2       96.9750   39.7110   23.1920 C.3   487  THR487      0.0376
    105  N         95.2340   42.7170   23.7650 N.am  488  GLY488     -0.1956
    106  CA        95.4900   43.6130   24.8690 C.3   488  GLY488      0.1869
    107  C         95.8960   42.8120   26.0850 C.2   488  GLY488      0.2309
    108  O         95.3490   41.7440   26.3330 O.2   488  GLY488     -0.2863
    109  N         95.0460   42.5380   28.8740 N.3   490  ASP490     -0.1225
    110  CA        94.0120   41.9890   29.7480 C.3   490  ASP490      0.1805
    111  C         93.9450   40.4680   29.7360 C.2   490  ASP490      0.2597
    112  O         93.5090   39.8720   30.7150 O.2   490  ASP490     -0.2718
    113  CB        92.6390   42.5320   29.3940 C.3   490  ASP490      0.1424
    114  CG        92.1850   42.0830   28.0410 C.2   490  ASP490      0.3668
    115  OD1       92.9830   42.2530   27.0830 O.co2 490  ASP490     -0.2456
    116  OD2       91.0410   41.5690   27.9420 O.co2 490  ASP490     -0.2456
    117  N         94.3530   39.8240   28.6460 N.am  491  ILE491     -0.1980
    118  CA        94.3120   38.3630   28.6300 C.3   491  ILE491      0.1595
    119  C         95.6720   37.7210   28.3730 C.2   491  ILE491      0.2287
    120  O         95.7570   36.6290   27.8150 O.2   491  ILE491     -0.2864
    121  CB        93.2710   37.8090   27.6040 C.3   491  ILE491      0.0276
    122  CG1       93.5580   38.3300   26.1980 C.3   491  ILE491      0.0022
    123  CG2       91.8680   38.1900   28.0270 C.3   491  ILE491      0.0022
    124  CD1       92.4410   38.0070   25.1890 C.3   491  ILE491      0.0001
    125  N         94.7640   33.7800   28.0770 N.3   495  TRP495     -0.1241
    126  CA        94.6730   33.6180   26.6290 C.3   495  TRP495      0.1605
    127  C         96.0610   33.2940   26.0750 C.2   495  TRP495      0.2264
    128  O         96.3470   32.1480   25.7590 O.2   495  TRP495     -0.2867
    129  CB        94.1170   34.9050   25.9810 C.3   495  TRP495      0.0550
    130  CG        94.0750   34.9730   24.4230 C.ar  495  TRP495      0.0003
    131  CD1       94.3540   36.0740   23.6320 C.ar  495  TRP495      0.0946
    132  CD2       93.6880   33.9380   23.5170 C.ar  495  TRP495      0.0152
    133  NE1       94.1610   35.7780   22.3000 N.ar  495  TRP495     -0.2442
    134  CE2       93.7530   34.4770   22.2020 C.ar  495  TRP495      0.0810
    135  CE3       93.2930   32.6140   23.6830 C.ar  495  TRP495      0.0012
    136  CZ2       93.4390   33.7380   21.0820 C.ar  495  TRP495      0.0191
    137  CZ3       92.9830   31.8850   22.5730 C.ar  495  TRP495      0.0001
    138  CH2       93.0550   32.4430   21.2820 C.ar  495  TRP495      0.0015
    139  N         98.7790   45.5770   23.1990 N.3   518  HIS518     -0.1226
    140  CA        98.3450   46.9550   23.0880 C.3   518  HIS518      0.1752
    141  C         97.5540   47.2770   24.3390 C.2   518  HIS518      0.2597
    142  O         97.0580   46.3640   24.9920 O.2   518  HIS518     -0.2718
    143  CB        97.4760   47.1270   21.8420 C.3   518  HIS518      0.0759
    144  CG        96.1430   46.4520   21.9320 C.ar  518  HIS518      0.0818
    145  ND1       95.6680   45.6160   20.9460 N.ar  518  HIS518     -0.2268
    146  CD2       95.1620   46.5310   22.8610 C.ar  518  HIS518      0.1154
    147  CE1       94.4510   45.2130   21.2630 C.ar  518  HIS518      0.1986
    148  NE2       94.1210   45.7560   22.4220 N.ar  518  HIS518     -0.2212
    149  N         97.4190   48.5630   24.6660 N.am  519  GLY519     -0.1942
    150  CA        96.6880   48.9420   25.8700 C.3   519  GLY519      0.2014
    151  C         95.1830   48.7760   25.7800 C.2   519  GLY519      0.2639
    152  O         94.6690   48.1540   24.8560 O.2   519  GLY519     -0.2714
    153  N         94.4560   49.3210   26.7410 N.am  520  LEU520     -0.1963
    154  CA        93.0070   49.2080   26.6830 C.3   520  LEU520      0.1728
    155  C         92.3570   50.5820   26.5590 C.2   520  LEU520      0.2616
    156  O         92.8630   51.5930   27.0650 O.2   520  LEU520     -0.2715
    157  CB        92.4570   48.4980   27.9240 C.3   520  LEU520      0.0311
    158  CG        93.2700   47.3350   28.4880 C.3   520  LEU520      0.0022
    159  CD1       92.5400   46.6940   29.6560 C.3   520  LEU520      0.0001
    160  CD2       93.4970   46.3290   27.3970 C.3   520  LEU520      0.0001
    161  N         91.2350   50.6230   25.8600 N.am  521  VAL521     -0.1977
    162  CA        90.5330   51.8750   25.7130 C.3   521  VAL521      0.1596
    163  C         89.6740   51.9040   26.9620 C.2   521  VAL521      0.2287
    164  O         89.2960   50.8480   27.4800 O.2   521  VAL521     -0.2864
    165  CB        89.6640   51.8970   24.4290 C.3   521  VAL521      0.0276
    166  CG1       90.3730   51.1400   23.3170 C.3   521  VAL521      0.0022
    167  CG2       88.2960   51.3160   24.7020 C.3   521  VAL521      0.0022
    168  N         88.7250   50.9430   32.4770 N.3   528  LYS528     -0.1231
    169  CA        88.5440   50.0250   31.3520 C.3   528  LYS528      0.1693
    170  C         87.1300   49.8910   30.8200 C.2   528  LYS528      0.2592
    171  O         86.1660   49.8560   31.5870 O.2   528  LYS528     -0.2718
    172  CB        89.0480   48.6280   31.7350 C.3   528  LYS528      0.0285
    173  CG        88.6860   47.5280   30.7400 C.3   528  LYS528      0.0035
    174  CD        89.1980   46.1730   31.2070 C.3   528  LYS528      0.0206
    175  CE        88.8220   45.0480   30.2460 C.3   528  LYS528      0.1093
    176  NZ        89.3340   43.7130   30.7020 N.3   528  LYS528     -0.1314
    177  N         87.0250   49.7970   29.4950 N.am  529  MET529     -0.1965
    178  CA        85.7360   49.6320   28.8440 C.3   529  MET529      0.1736
    179  C         85.4060   48.1500   28.7700 C.2   529  MET529      0.2617
    180  O         86.2430   47.3270   28.3840 O.2   529  MET529     -0.2715
    181  CB        85.7440   50.2110   27.4330 C.3   529  MET529      0.0427
    182  CG        84.3390   50.2790   26.8470 C.3   529  MET529      0.0599
    183  SD        84.2190   51.1720   25.2940 S.3   529  MET529     -0.1393
    184  CE        85.3910   52.5030   25.6110 C.3   529  MET529      0.0692
    185  N         84.1780   47.8140   29.1450 N.am  530  SER530     -0.1950
    186  CA        83.7390   46.4290   29.1270 C.3   530  SER530      0.1924
    187  C         82.2750   46.2830   29.5380 C.2   530  SER530      0.2314
    188  O         81.7840   47.0110   30.4050 O.2   530  SER530     -0.2863
    189  CB        84.6250   45.6060   30.0570 C.3   530  SER530      0.2116
    190  OG        84.6870   46.2120   31.3340 O.3   530  SER530     -0.2180
@<TRIPOS>BOND
     1    65    64    2
     2    64    63    1
     3    57    56    2
     4     1     7    1
     5     1     2    1
     6     7     6    1
     7    47    46    2
     8    56    55    1
     9    56    62   am
    10    21    20    1
    11    21    15    1
    12    54    55    1
    13    55    58    1
    14    63    62    1
    15    63    66    1
    16    20    19    1
    17    12     9    1
    18    12    13    1
    19    46    45    1
    20     4     3    2
    21     9     8    1
    22     9    10    1
    23     3     8   am
    24     3     2    1
    25     8    14    1
    26    69    67   ar
    27     2     5    1
    28    14    13    1
    29     6     5    1
    30    67    66    1
    31    67    68   ar
    32    19    16    1
    33    60    59    1
    34    15    10   am
    35    15    16    1
    36    48    45    1
    37    48    49    1
    38    58    59    1
    39    10    11    2
    40    45    44    1
    41    70    71    1
    42    59    61    1
    43    18    17    2
    44    16    17    1
    45    49    50   ar
    46    49    51   ar
    47    98    99    1
    48    33    32    2
    49    43    42    2
    50   145   147   ar
    51   145   144   ar
    52    17    22   am
    53    44    42   am
    54    50    52   ar
    55    71    72    1
    56    71    74    1
    57   136   138   ar
    58   136   134   ar
    59    30    31    1
    60   147   148   ar
    61   138   137   ar
    62    32    31    1
    63    42    41    1
    64    51    53   ar
    65    72    73    2
    66    31    34    1
    67    99   102    1
    68    99   100    1
    69   143   144    1
    70   143   140    1
    71   144   146   ar
    72    52    53   ar
    73    74    75    1
    74   134   133   ar
    75   134   132   ar
    76    25    24    2
    77    22    23    1
    78    40    41    1
    79    95    94    2
    80   133   131   ar
    81   102   104    1
    82   102   103    1
    83   148   146   ar
    84    24    23    1
    85   137   135   ar
    86   100   101    2
    87   100   105   am
    88    23    26    1
    89   140   139    1
    90   140   141    1
    91    75    77   ar
    92    75    76   ar
    93    94    93    1
    94    34    35    1
    95   166   165    1
    96    93    92    1
    97    93    96    1
    98   132   135   ar
    99   132   130   ar
   100   131   130   ar
   101   105   106    1
   102    37    35   ar
   103    37    39   ar
   104    35    36   ar
   105    96    97    1
   106   141   149   am
   107   141   142    2
   108   130   129    1
   109   165   167    1
   110   165   162    1
   111    26    27    1
   112    39    38   ar
   113   149   150    1
   114    36    38   ar
   115    28    27    2
   116   152   151    2
   117   106   107    1
   118    27    29   am
   119   124   122    1
   120   183   184    1
   121   183   182    1
   122   162   161    1
   123   162   163    1
   124   128   127    2
   125   151   150    1
   126   151   153   am
   127   161   155   am
   128   129   126    1
   129   127   126    1
   130   107   108    2
   131   122   121    1
   132   155   154    1
   133   155   156    2
   134   126   125    1
   135   154   153    1
   136   154   157    1
   137   182   181    1
   138   163   164    2
   139   115   114   ar
   140    81    80    2
   141   160   158    1
   142   181   178    1
   143    90    91   ar
   144    90    88   ar
   145   121   123    1
   146   121   118    1
   147    80    79    1
   148   120   119    2
   149   157   158    1
   150   116   114   ar
   151    91    89   ar
   152   114   113    1
   153    88    85   ar
   154    79    78    1
   155    79    82    1
   156   119   118    1
   157   180   179    2
   158   158   159    1
   159   118   117    1
   160   117   111   am
   161   179   178    1
   162   179   185   am
   163   178   177    1
   164   109   110    1
   165    89    87   ar
   166    85    87   ar
   167    85    83   ar
   168   186   185    1
   169   186   187    1
   170   186   189    1
   171   113   110    1
   172   177   170   am
   173    87    86   ar
   174    82    83    1
   175   187   188    2
   176   111   110    1
   177   111   112    2
   178    83    84   ar
   179   189   190    1
   180   175   176    1
   181   175   174    1
   182    86    84   ar
   183   173   174    1
   184   173   172    1
   185   170   169    1
   186   170   171    2
   187   169   172    1
   188   169   168    1
