@<TRIPOS>MOLECULE
tmp/1gbbA00.pdb
 137 132 0 0 0
SMALL
GASTEIGER

@<TRIPOS>ATOM
      1  N         16.1490   27.0470   21.4440 N.3    36  HIS36      -0.1241
      2  CA        14.7430   27.2610   21.1970 C.3    36  HIS36       0.1621
      3  C         14.2170   26.3810   20.0970 C.2    36  HIS36       0.2264
      4  O         13.0120   26.4080   19.8680 O.2    36  HIS36      -0.2867
      5  CB        14.4830   28.7080   20.8430 C.3    36  HIS36       0.0745
      6  CG        14.9640   29.2390   19.4980 C.ar   36  HIS36       0.0817
      7  ND1       16.0660   29.9550   19.2800 N.ar   36  HIS36      -0.2268
      8  CD2       14.3070   29.1310   18.2890 C.ar   36  HIS36       0.1154
      9  CE1       16.1310   30.2990   18.0160 C.ar   36  HIS36       0.1986
     10  NE2       15.0700   29.7850   17.4470 N.ar   36  HIS36      -0.2212
     11  N         17.1650   27.2150   27.1220 N.3    59  PHE59      -0.1241
     12  CA        16.5180   28.3380   26.4810 C.3    59  PHE59       0.1605
     13  C         15.3350   28.6770   27.3690 C.2    59  PHE59       0.2264
     14  O         14.6160   27.7280   27.7340 O.2    59  PHE59      -0.2867
     15  CB        15.9990   27.9660   25.1220 C.3    59  PHE59       0.0534
     16  CG        15.1680   29.0740   24.4960 C.ar   59  PHE59      -0.0203
     17  CD1       15.7960   30.1860   23.9420 C.ar   59  PHE59      -0.0042
     18  CD2       13.7630   28.9840   24.5170 C.ar   59  PHE59      -0.0042
     19  CE1       15.0080   31.2110   23.4130 C.ar   59  PHE59      -0.0003
     20  CE2       13.0020   30.0220   23.9830 C.ar   59  PHE59      -0.0003
     21  CZ        13.6260   31.1350   23.4330 C.ar   59  PHE59      -0.0000
     22  N         18.8550   39.6280   24.2630 N.3   121  ALA121     -0.1231
     23  CA        17.7170   39.6480   23.3710 C.3   121  ALA121      0.1694
     24  C         16.5270   39.4180   24.2960 C.2   121  ALA121      0.2592
     25  O         16.5670   38.5860   25.2040 O.2   121  ALA121     -0.2718
     26  CB        17.7900   38.5080   22.4070 C.3   121  ALA121      0.0304
     27  N         15.4500   40.1480   24.1140 N.am  122  ASN122     -0.1960
     28  CA        14.2550   39.9890   24.9060 C.3   122  ASN122      0.1819
     29  C         13.2340   39.2930   24.0520 C.2   122  ASN122      0.2621
     30  O         12.5160   39.9210   23.2790 O.2   122  ASN122     -0.2715
     31  CB        13.7300   41.3540   25.3380 C.3   122  ASN122      0.1195
     32  CG        14.6720   42.0090   26.3460 C.2   122  ASN122      0.2630
     33  OD1       15.0710   41.4500   27.3680 O.2   122  ASN122     -0.2716
     34  ND2       15.1190   43.2240   26.1000 N.am  122  ASN122     -0.0877
     35  N         13.2140   37.9790   24.0880 N.am  123  TYR123     -0.1960
     36  CA        12.2710   37.2230   23.2810 C.3   123  TYR123      0.1771
     37  C         10.9880   37.0790   24.0950 C.2   123  TYR123      0.2619
     38  O         11.0030   37.2720   25.3200 O.2   123  TYR123     -0.2715
     39  CB        12.8430   35.8570   22.9840 C.3   123  TYR123      0.0574
     40  CG        14.1390   35.8510   22.1970 C.ar  123  TYR123     -0.0198
     41  CD1       14.3650   36.8020   21.2080 C.ar  123  TYR123     -0.0009
     42  CD2       15.0700   34.8420   22.4230 C.ar  123  TYR123     -0.0009
     43  CE1       15.5120   36.7400   20.4270 C.ar  123  TYR123      0.0417
     44  CE2       16.2290   34.7800   21.6420 C.ar  123  TYR123      0.0417
     45  CZ        16.4290   35.7270   20.6530 C.ar  123  TYR123      0.1957
     46  OH        17.5390   35.6810   19.8540 O.3   123  TYR123     -0.2866
     47  N          9.8640   36.6790   23.4930 N.am  124  ALA124     -0.1963
     48  CA         8.6180   36.5100   24.2350 C.3   124  ALA124      0.1728
     49  C          8.7650   35.5610   25.4180 C.2   124  ALA124      0.2616
     50  O          8.0800   35.6620   26.4320 O.2   124  ALA124     -0.2715
     51  CB         7.5200   35.9490   23.3280 C.3   124  ALA124      0.0334
     52  N          9.6720   34.6020   25.2970 N.am  125  GLU125     -0.1977
     53  CA         9.8600   33.5840   26.3120 C.3   125  GLU125      0.1602
     54  C         10.6560   34.0070   27.5170 C.2   125  GLU125      0.2287
     55  O         10.6250   33.2940   28.5160 O.2   125  GLU125     -0.2864
     56  CB        10.5810   32.3760   25.7630 C.3   125  GLU125      0.0415
     57  CG         9.7580   31.6430   24.7240 C.3   125  GLU125      0.1163
     58  CD         9.9580   32.0510   23.2720 C.2   125  GLU125      0.3649
     59  OE1       10.5330   33.1100   22.9820 O.co2 125  GLU125     -0.2457
     60  OE2        9.5170   31.2500   22.4410 O.co2 125  GLU125     -0.2457
     61  N         17.0850   34.9960    8.5100 N.3   139  GLY139     -0.1210
     62  CA        15.6410   34.9070    8.4320 C.3   139  GLY139      0.1956
     63  C         15.1000   33.7620    9.2650 C.2   139  GLY139      0.2612
     64  O         15.8760   32.9330    9.7460 O.2   139  GLY139     -0.2717
     65  N         13.7840   33.6560    9.4290 N.am  140  ARG140     -0.1965
     66  CA        13.1710   32.6010   10.1900 C.3   140  ARG140      0.1729
     67  C         13.5460   31.2940    9.5470 C.2   140  ARG140      0.2616
     68  O         13.3680   31.1250    8.3400 O.2   140  ARG140     -0.2715
     69  CB        11.6780   32.7150   10.1710 C.3   140  ARG140      0.0348
     70  CG        11.1820   33.9010   10.9440 C.3   140  ARG140      0.0492
     71  CD         9.6770   33.8670   10.8440 C.3   140  ARG140      0.2205
     72  NE         9.2280   35.2220   10.9820 N.pl3 140  ARG140     -0.0865
     73  CZ         8.3520   35.7580   10.1480 C.cat 140  ARG140      0.5346
     74  NH1        7.7760   35.0450    9.1790 N.pl3 140  ARG140      0.1354
     75  NH2        8.0180   37.0320   10.3340 N.pl3 140  ARG140      0.1354
     76  N         14.0920   30.3630   10.3260 N.am  141  GLY141     -0.1955
     77  CA        14.5140   29.0560    9.8140 C.3   141  GLY141      0.1869
     78  C         16.0230   28.8960    9.8900 C.2   141  GLY141      0.2309
     79  O         16.5900   27.7930    9.8800 O.2   141  GLY141     -0.2863
     80  N         17.8220   29.6780   12.4640 N.3   143  SER143     -0.1217
     81  CA        18.2070   29.4490   13.8530 C.3   143  SER143      0.1889
     82  C         18.8870   28.1240   13.9780 C.2   143  SER143      0.2288
     83  O         18.5220   27.1420   13.3190 O.2   143  SER143     -0.2866
     84  CB        17.0370   29.3800   14.7390 C.3   143  SER143      0.2089
     85  OG        16.4020   30.6500   14.6890 O.3   143  SER143     -0.2183
     86  N         23.2080   30.4950   15.4100 N.3   158  MET158     -0.1230
     87  CA        22.1660   31.4910   15.2150 C.3   158  MET158      0.1702
     88  C         21.0580   31.4170   16.2480 C.2   158  MET158      0.2593
     89  O         20.4300   30.3730   16.4180 O.2   158  MET158     -0.2718
     90  CB        21.5520   31.3070   13.8350 C.3   158  MET158      0.0401
     91  CG        20.5150   32.3750   13.4730 C.3   158  MET158      0.0596
     92  SD        21.2640   33.8720   12.7890 S.3   158  MET158     -0.1393
     93  CE        20.2970   35.1350   13.5100 C.3   158  MET158      0.0692
     94  N         20.7590   32.5360   16.8800 N.am  159  SER159     -0.1938
     95  CA        19.6880   32.6280   17.8480 C.3   159  SER159      0.2055
     96  C         18.4920   33.4380   17.3590 C.2   159  SER159      0.2644
     97  O         17.3670   32.9150   17.3520 O.2   159  SER159     -0.2714
     98  CB        20.2070   33.2720   19.1310 C.3   159  SER159      0.2130
     99  OG        19.1120   33.3420   20.0600 O.3   159  SER159     -0.2179
    100  N         18.6600   34.7010   16.9570 N.am  160  GLY160     -0.1939
    101  CA        17.5160   35.5390   16.6140 C.3   160  GLY160      0.2014
    102  C         17.9340   36.7540   15.8080 C.2   160  GLY160      0.2639
    103  O         19.1240   37.0050   15.6290 O.2   160  GLY160     -0.2714
    104  N         16.9990   37.5090   15.2600 N.am  161  ALA161     -0.1963
    105  CA        17.3220   38.6330   14.4100 C.3   161  ALA161      0.1728
    106  C         16.1310   39.5730   14.3840 C.2   161  ALA161      0.2616
    107  O         15.0290   39.2080   14.7950 O.2   161  ALA161     -0.2715
    108  CB        17.6260   38.1430   12.9790 C.3   161  ALA161      0.0334
    109  N         16.3150   40.8400   14.0510 N.am  162  ASN162     -0.1958
    110  CA        15.2070   41.7730   13.8790 C.3   162  ASN162      0.1819
    111  C         14.6130   41.6350   12.4830 C.2   162  ASN162      0.2621
    112  O         14.8050   42.4240   11.5600 O.2   162  ASN162     -0.2715
    113  CB        15.7170   43.1870   14.1250 C.3   162  ASN162      0.1195
    114  CG        16.8220   43.6920   13.2200 C.2   162  ASN162      0.2630
    115  OD1       17.7030   42.9600   12.7720 O.2   162  ASN162     -0.2716
    116  ND2       16.8220   44.9760   12.9240 N.am  162  ASN162     -0.0877
    117  N         13.8650   40.5560   12.3110 N.am  163  VAL163     -0.1977
    118  CA        13.2580   40.2120   11.0400 C.3   163  VAL163      0.1596
    119  C         12.1100   41.1530   10.8020 C.2   163  VAL163      0.2287
    120  O         11.4880   41.6460   11.7420 O.2   163  VAL163     -0.2864
    121  CB        12.7390   38.7380   11.0240 C.3   163  VAL163      0.0276
    122  CG1       13.9110   37.8300   11.3290 C.3   163  VAL163      0.0022
    123  CG2       11.6920   38.4600   12.0600 C.3   163  VAL163      0.0022
    124  N         20.4420   43.4360   13.3400 N.3   178  SER178     -0.1217
    125  CA        20.9020   42.8500   14.5760 C.3   178  SER178      0.1889
    126  C         20.5500   41.3940   14.3920 C.2   178  SER178      0.2288
    127  O         19.3670   41.0190   14.4110 O.2   178  SER178     -0.2866
    128  CB        20.1380   43.3990   15.7490 C.3   178  SER178      0.2089
    129  OG        20.5260   42.7130   16.9210 O.3   178  SER178     -0.2183
    130  N         21.7850   37.8140   15.9610 N.3   180  LEU180     -0.1245
    131  CA        22.4470   37.3910   17.1680 C.3   180  LEU180      0.1561
    132  C         22.7370   35.9080   17.1900 C.2   180  LEU180      0.2260
    133  O         21.9430   35.0840   16.7260 O.2   180  LEU180     -0.2867
    134  CB        21.5550   37.7720   18.3400 C.3   180  LEU180      0.0270
    135  CG        20.9890   39.2100   18.3750 C.3   180  LEU180      0.0019
    136  CD1       19.8400   39.3130   19.3900 C.3   180  LEU180      0.0001
    137  CD2       22.1040   40.1730   18.7100 C.3   180  LEU180      0.0001
@<TRIPOS>BOND
     1    68    67    2
     2    62    61    1
     3    62    63    1
     4    74    73    1
     5    63    65   am
     6    63    64    2
     7    65    66    1
     8    67    66    1
     9    67    76   am
    10    77    78    1
    11    77    76    1
    12    79    78    2
    13    73    75    1
    14    73    72    2
    15    69    66    1
    16    69    70    1
    17   119   118    1
    18   119   120    2
    19    71    70    1
    20    71    72    1
    21   121   118    1
    22   121   122    1
    23   121   123    1
    24   118   117    1
    25   112   111    2
    26   117   111   am
    27    80    81    1
    28   111   110    1
    29   115   114    2
    30    92    91    1
    31    92    93    1
    32   116   114   am
    33   108   105    1
    34   114   113    1
    35    83    82    2
    36   124   125    1
    37    91    90    1
    38    90    87    1
    39    81    82    1
    40    81    84    1
    41   110   109    1
    42   110   113    1
    43   109   106   am
    44   106   105    1
    45   106   107    2
    46   126   127    2
    47   126   125    1
    48   105   104    1
    49   125   128    1
    50    85    84    1
    51    87    86    1
    52    87    88    1
    53   104   102   am
    54   103   102    2
    55   128   129    1
    56   102   101    1
    57   130   131    1
    58    88    89    2
    59    88    94   am
    60   101   100    1
    61   133   132    2
    62    94    95    1
    63   100    96   am
    64   131   132    1
    65   131   134    1
    66    97    96    2
    67    96    95    1
    68    10     9   ar
    69    10     8   ar
    70    95    98    1
    71     9     7   ar
    72     8     6   ar
    73   134   135    1
    74   135   137    1
    75   135   136    1
    76    98    99    1
    77     7     6   ar
    78     6     5    1
    79    46    45    1
    80     4     3    2
    81     3     2    1
    82    43    45   ar
    83    43    41   ar
    84    45    44   ar
    85     5     2    1
    86     2     1    1
    87    41    40   ar
    88    44    42   ar
    89    40    42   ar
    90    40    39    1
    91    26    23    1
    92    60    58   ar
    93    59    58   ar
    94    39    36    1
    95    58    57    1
    96    30    29    2
    97    36    35    1
    98    36    37    1
    99    51    48    1
   100    23    22    1
   101    23    24    1
   102    19    21   ar
   103    19    17   ar
   104    21    20   ar
   105    47    37   am
   106    47    48    1
   107    17    16   ar
   108    20    18   ar
   109    29    35   am
   110    29    28    1
   111    37    38    2
   112    27    24   am
   113    27    28    1
   114    48    49    1
   115    24    25    2
   116    16    18   ar
   117    16    15    1
   118    57    56    1
   119    28    31    1
   120    15    12    1
   121    52    49   am
   122    52    53    1
   123    31    32    1
   124    49    50    2
   125    56    53    1
   126    34    32   am
   127    53    54    1
   128    32    33    2
   129    12    11    1
   130    12    13    1
   131    13    14    2
   132    54    55    2
