@<TRIPOS>MOLECULE
tmp/1gbiA00.pdb
 138 132 0 0 0
SMALL
GASTEIGER

@<TRIPOS>ATOM
      1  N         14.9730   24.3190   11.6780 N.3    17  CYS17      -0.1235
      2  CA        16.1830   25.0350   12.0630 C.3    17  CYS17       0.1677
      3  C         17.3320   24.5350   11.1720 C.2    17  CYS17       0.2270
      4  O         17.1610   23.7870   10.1890 O.2    17  CYS17      -0.2867
      5  CB        16.4930   24.7610   13.5260 C.3    17  CYS17       0.0956
      6  SG        15.4080   25.6180   14.6840 S.3    17  CYS17      -0.0801
      7  N         16.2240   27.0360   21.5140 N.3    36  HIS36      -0.1241
      8  CA        14.8210   27.2590   21.2750 C.3    36  HIS36       0.1621
      9  C         14.3020   26.3870   20.1680 C.2    36  HIS36       0.2264
     10  O         13.1060   26.4780   19.9030 O.2    36  HIS36      -0.2867
     11  CB        14.5550   28.7060   20.9070 C.3    36  HIS36       0.0745
     12  CG        15.1380   29.2230   19.6090 C.ar   36  HIS36       0.0817
     13  ND1       16.2430   29.9410   19.4590 N.ar   36  HIS36      -0.2268
     14  CD2       14.5810   29.0900   18.3620 C.ar   36  HIS36       0.1154
     15  CE1       16.3890   30.2460   18.1830 C.ar   36  HIS36       0.1986
     16  NE2       15.3850   29.7380   17.5620 N.ar   36  HIS36      -0.2212
     17  N         17.3230   27.4060   27.0490 N.3    59  PHE59      -0.1241
     18  CA        16.6460   28.5120   26.4480 C.3    59  PHE59       0.1605
     19  C         15.4440   28.7800   27.3460 C.2    59  PHE59       0.2264
     20  O         14.8400   27.8060   27.8230 O.2    59  PHE59      -0.2867
     21  CB        16.1610   28.1940   25.0490 C.3    59  PHE59       0.0534
     22  CG        15.3340   29.3510   24.4920 C.ar   59  PHE59      -0.0203
     23  CD1       15.9780   30.4530   23.9470 C.ar   59  PHE59      -0.0042
     24  CD2       13.9280   29.3030   24.5160 C.ar   59  PHE59      -0.0042
     25  CE1       15.2100   31.5090   23.4320 C.ar   59  PHE59      -0.0003
     26  CE2       13.1870   30.3580   24.0020 C.ar   59  PHE59      -0.0003
     27  CZ        13.8200   31.4700   23.4560 C.ar   59  PHE59      -0.0000
     28  N         19.0420   39.8390   24.3770 N.3   121  ALA121     -0.1231
     29  CA        17.9300   39.8930   23.4560 C.3   121  ALA121      0.1694
     30  C         16.7620   39.7670   24.4300 C.2   121  ALA121      0.2592
     31  O         16.8220   39.0250   25.4190 O.2   121  ALA121     -0.2718
     32  CB        17.9330   38.7010   22.5460 C.3   121  ALA121      0.0304
     33  N         15.6830   40.5080   24.2590 N.am  122  ASN122     -0.1960
     34  CA        14.5300   40.3440   25.1300 C.3   122  ASN122      0.1819
     35  C         13.4600   39.6750   24.2730 C.2   122  ASN122      0.2621
     36  O         12.6840   40.2800   23.5280 O.2   122  ASN122     -0.2715
     37  CB        14.1150   41.7210   25.6450 C.3   122  ASN122      0.1195
     38  CG        15.0120   42.2010   26.7950 C.2   122  ASN122      0.2630
     39  OD1       15.1260   41.5790   27.8490 O.2   122  ASN122     -0.2716
     40  ND2       15.7040   43.3300   26.7070 N.am  122  ASN122     -0.0877
     41  N         13.5170   38.3600   24.3030 N.am  123  TYR123     -0.1960
     42  CA        12.5950   37.5640   23.5440 C.3   123  TYR123      0.1771
     43  C         11.3190   37.4990   24.3410 C.2   123  TYR123      0.2619
     44  O         11.3060   37.7160   25.5680 O.2   123  TYR123     -0.2715
     45  CB        13.1650   36.1830   23.3650 C.3   123  TYR123      0.0574
     46  CG        14.4180   36.1620   22.5100 C.ar  123  TYR123     -0.0198
     47  CD1       14.5290   37.0740   21.4600 C.ar  123  TYR123     -0.0009
     48  CD2       15.3990   35.1940   22.7000 C.ar  123  TYR123     -0.0009
     49  CE1       15.5980   37.0210   20.5860 C.ar  123  TYR123      0.0417
     50  CE2       16.4810   35.1340   21.8140 C.ar  123  TYR123      0.0417
     51  CZ        16.5440   36.0450   20.7670 C.ar  123  TYR123      0.1957
     52  OH        17.4710   35.9540   19.7920 O.3   123  TYR123     -0.2866
     53  N         10.2430   37.1300   23.6430 N.am  124  ALA124     -0.1963
     54  CA         8.9190   36.9840   24.2540 C.3   124  ALA124      0.1728
     55  C          8.9120   35.9980   25.4340 C.2   124  ALA124      0.2616
     56  O          8.1250   36.0960   26.3820 O.2   124  ALA124     -0.2715
     57  CB         7.8990   36.4850   23.2120 C.3   124  ALA124      0.0334
     58  N          9.7980   35.0090   25.3850 N.am  125  GLU125     -0.1977
     59  CA         9.8580   33.9970   26.4220 C.3   125  GLU125      0.1602
     60  C         10.7410   34.3750   27.5800 C.2   125  GLU125      0.2287
     61  O         10.6350   33.6880   28.5950 O.2   125  GLU125     -0.2864
     62  CB        10.4150   32.6740   25.9290 C.3   125  GLU125      0.0415
     63  CG         9.6360   32.0660   24.8020 C.3   125  GLU125      0.1163
     64  CD        10.1400   32.4030   23.4090 C.2   125  GLU125      0.3649
     65  OE1       10.7920   33.4340   23.1860 O.co2 125  GLU125     -0.2457
     66  OE2        9.8540   31.5830   22.5300 O.co2 125  GLU125     -0.2457
     67  N         17.1770   34.9580    8.6030 N.3   139  GLY139     -0.1210
     68  CA        15.7280   34.8830    8.4670 C.3   139  GLY139      0.1956
     69  C         15.1630   33.7860    9.3480 C.2   139  GLY139      0.2612
     70  O         15.9210   33.0470    9.9920 O.2   139  GLY139     -0.2717
     71  N         13.8480   33.6550    9.4340 N.am  140  ARG140     -0.1965
     72  CA        13.2240   32.5840   10.1820 C.3   140  ARG140      0.1729
     73  C         13.6940   31.2690    9.5660 C.2   140  ARG140      0.2616
     74  O         13.5650   31.1720    8.3390 O.2   140  ARG140     -0.2715
     75  CB        11.7170   32.6700   10.0430 C.3   140  ARG140      0.0348
     76  CG        11.0930   33.8890   10.6390 C.3   140  ARG140      0.0492
     77  CD         9.6050   33.6770   10.5460 C.3   140  ARG140      0.2205
     78  NE         9.0400   34.9970   10.6700 N.pl3 140  ARG140     -0.0865
     79  CZ         8.1180   35.4910    9.8390 C.cat 140  ARG140      0.5346
     80  NH1        7.5890   34.7800    8.8430 N.pl3 140  ARG140      0.1354
     81  NH2        7.7150   36.7420   10.0620 N.pl3 140  ARG140      0.1354
     82  N         14.2090   30.2480   10.2770 N.am  141  GLY141     -0.1955
     83  CA        14.6770   29.0120    9.6500 C.3   141  GLY141      0.1869
     84  C         16.1640   28.8290    9.8610 C.2   141  GLY141      0.2309
     85  O         16.7180   27.7310    9.9260 O.2   141  GLY141     -0.2863
     86  N         17.9140   29.6950   12.5560 N.3   143  SER143     -0.1217
     87  CA        18.3260   29.4510   13.9270 C.3   143  SER143      0.1889
     88  C         19.0760   28.1610   14.0230 C.2   143  SER143      0.2288
     89  O         18.7280   27.1720   13.3760 O.2   143  SER143     -0.2866
     90  CB        17.1990   29.2570   14.9300 C.3   143  SER143      0.2089
     91  OG        16.3470   30.3830   14.9840 O.3   143  SER143     -0.2183
     92  N         20.9620   32.6690   17.0700 N.3   159  SER159     -0.1202
     93  CA        19.8900   32.8080   18.0380 C.3   159  SER159      0.2020
     94  C         18.6610   33.5520   17.5210 C.2   159  SER159      0.2619
     95  O         17.5690   32.9890   17.5240 O.2   159  SER159     -0.2717
     96  CB        20.3830   33.5470   19.2580 C.3   159  SER159      0.2103
     97  OG        19.3580   33.8820   20.1910 O.3   159  SER159     -0.2182
     98  N         18.7720   34.8280   17.1570 N.am  160  GLY160     -0.1942
     99  CA        17.6300   35.6140   16.7430 C.3   160  GLY160      0.2014
    100  C         18.0390   36.8420   15.9270 C.2   160  GLY160      0.2639
    101  O         19.2280   37.1050   15.6850 O.2   160  GLY160     -0.2714
    102  N         17.0450   37.6200   15.4790 N.am  161  LEU161     -0.1963
    103  CA        17.2900   38.7930   14.6620 C.3   161  LEU161      0.1728
    104  C         16.0970   39.7320   14.7470 C.2   161  LEU161      0.2616
    105  O         15.0390   39.4070   15.3100 O.2   161  LEU161     -0.2715
    106  CB        17.5120   38.4120   13.1870 C.3   161  LEU161      0.0311
    107  CG        16.3420   37.7040   12.5470 C.3   161  LEU161      0.0022
    108  CD1       16.3480   37.9870   11.0710 C.3   161  LEU161      0.0001
    109  CD2       16.4130   36.2190   12.8290 C.3   161  LEU161      0.0001
    110  N         16.3060   40.9540   14.2510 N.am  162  ASN162     -0.1958
    111  CA        15.2700   41.9760   14.1420 C.3   162  ASN162      0.1819
    112  C         14.5300   41.7660   12.8020 C.2   162  ASN162      0.2621
    113  O         14.8500   42.2490   11.7120 O.2   162  ASN162     -0.2715
    114  CB        16.0100   43.3050   14.2910 C.3   162  ASN162      0.1195
    115  CG        16.9690   43.6300   13.1650 C.2   162  ASN162      0.2630
    116  OD1       17.8990   42.8940   12.8350 O.2   162  ASN162     -0.2716
    117  ND2       16.7380   44.7140   12.4680 N.am  162  ASN162     -0.0877
    118  N         13.5580   40.8740   12.8630 N.am  163  VAL163     -0.1977
    119  CA        12.9070   40.3600   11.6580 C.3   163  VAL163      0.1596
    120  C         11.8750   41.3180   11.1490 C.2   163  VAL163      0.2287
    121  O         11.1640   41.9330   11.9440 O.2   163  VAL163     -0.2864
    122  CB        12.2990   38.9590   11.9900 C.3   163  VAL163      0.0276
    123  CG1       11.2870   39.0460   13.1030 C.3   163  VAL163      0.0022
    124  CG2       11.6140   38.3960   10.7790 C.3   163  VAL163      0.0022
    125  N         20.5240   43.5300   13.4120 N.3   178  SER178     -0.1217
    126  CA        21.0080   43.0770   14.6790 C.3   178  SER178      0.1889
    127  C         20.7670   41.5880   14.5480 C.2   178  SER178      0.2288
    128  O         19.6210   41.1600   14.7610 O.2   178  SER178     -0.2866
    129  CB        20.1720   43.6830   15.7830 C.3   178  SER178      0.2089
    130  OG        20.4370   42.9910   17.0040 O.3   178  SER178     -0.2183
    131  N         21.9320   38.0480   16.0500 N.3   180  LEU180     -0.1245
    132  CA        22.5940   37.6340   17.2660 C.3   180  LEU180      0.1561
    133  C         22.8420   36.1440   17.2360 C.2   180  LEU180      0.2260
    134  O         22.0000   35.3580   16.7550 O.2   180  LEU180     -0.2867
    135  CB        21.7310   37.9380   18.4830 C.3   180  LEU180      0.0270
    136  CG        20.8530   39.1840   18.5300 C.3   180  LEU180      0.0019
    137  CD1       20.1740   39.2830   19.8840 C.3   180  LEU180      0.0001
    138  CD2       21.6950   40.4300   18.3150 C.3   180  LEU180      0.0001
@<TRIPOS>BOND
     1    74    73    2
     2    68    67    1
     3    68    69    1
     4    80    79    1
     5    69    71   am
     6    69    70    2
     7    71    72    1
     8    73    72    1
     9    73    82   am
    10    83    84    1
    11    83    82    1
    12    79    81    1
    13    79    78    2
    14    84    85    2
    15    75    72    1
    16    75    76    1
    17     4     3    2
    18    77    76    1
    19    77    78    1
    20   124   122    1
    21   108   107    1
    22   120   119    1
    23   120   121    2
    24     3     2    1
    25   119   122    1
    26   119   118    1
    27     1     2    1
    28   113   112    2
    29   122   123    1
    30     2     5    1
    31   117   115   am
    32   107   109    1
    33   107   106    1
    34    86    87    1
    35   112   118   am
    36   112   111    1
    37   116   115    2
    38   115   114    1
    39   106   103    1
    40    89    88    2
    41   125   126    1
    42     5     6    1
    43    87    88    1
    44    87    90    1
    45   111   110    1
    46   111   114    1
    47   110   104   am
    48   127   126    1
    49   127   128    2
    50   103   104    1
    51   103   102    1
    52   126   129    1
    53   104   105    2
    54    90    91    1
    55   102   100   am
    56   101   100    2
    57   129   130    1
    58   100    99    1
    59   131   132    1
    60    99    98    1
    61   134   133    2
    62    92    93    1
    63    98    94   am
    64   133   132    1
    65   132   135    1
    66    94    95    2
    67    94    93    1
    68    16    15   ar
    69    16    14   ar
    70    93    96    1
    71    15    13   ar
    72   138   136    1
    73    14    12   ar
    74   135   136    1
    75   136   137    1
    76    96    97    1
    77    13    12   ar
    78    12    11    1
    79    52    51    1
    80    10     9    2
    81     9     8    1
    82    49    51   ar
    83    49    47   ar
    84    51    50   ar
    85    11     8    1
    86     8     7    1
    87    47    46   ar
    88    50    48   ar
    89    46    48   ar
    90    46    45    1
    91    66    64   ar
    92    32    29    1
    93    65    64   ar
    94    57    54    1
    95    45    42    1
    96    64    63    1
    97    25    27   ar
    98    25    23   ar
    99    29    28    1
   100    29    30    1
   101    27    26   ar
   102    36    35    2
   103    42    41    1
   104    42    43    1
   105    53    54    1
   106    53    43   am
   107    23    22   ar
   108    26    24   ar
   109    54    55    1
   110    33    30   am
   111    33    34    1
   112    35    41   am
   113    35    34    1
   114    43    44    2
   115    30    31    2
   116    22    24   ar
   117    22    21    1
   118    63    62    1
   119    21    18    1
   120    34    37    1
   121    58    55   am
   122    58    59    1
   123    55    56    2
   124    37    38    1
   125    62    59    1
   126    59    60    1
   127    18    17    1
   128    18    19    1
   129    40    38   am
   130    38    39    2
   131    19    20    2
   132    60    61    2
