@<TRIPOS>MOLECULE
tmp/1gbnC00.pdb
 138 134 0 0 0
SMALL
GASTEIGER

@<TRIPOS>ATOM
      1  N         18.0810    8.2120  -13.5900 N.3    18  TYR18      -0.1241
      2  CA        18.7610    7.0500  -13.0330 C.3    18  TYR18       0.1605
      3  C         19.4840    6.2410  -14.0920 C.2    18  TYR18       0.2264
      4  O         19.1640    6.3070  -15.2810 O.2    18  TYR18      -0.2867
      5  CB        17.7600    6.1040  -12.3870 C.3    18  TYR18       0.0534
      6  CG        17.3090    6.5300  -11.0350 C.ar   18  TYR18      -0.0201
      7  CD1       18.1280    6.3630   -9.9240 C.ar   18  TYR18      -0.0009
      8  CD2       16.0420    7.0750  -10.8490 C.ar   18  TYR18      -0.0009
      9  CE1       17.6910    6.7270   -8.6540 C.ar   18  TYR18       0.0417
     10  CE2       15.5970    7.4350   -9.5880 C.ar   18  TYR18       0.0417
     11  CZ        16.4160    7.2470   -8.4920 C.ar   18  TYR18       0.1957
     12  OH        15.8790    7.4480   -7.2250 O.3    18  TYR18      -0.2866
     13  N         18.1450    0.0600   -0.4440 N.3    48  TYR48      -0.1241
     14  CA        18.8020    1.1210    0.3080 C.3    48  TYR48       0.1605
     15  C         18.3790    1.1610    1.7650 C.2    48  TYR48       0.2264
     16  O         18.2390    2.2260    2.3530 O.2    48  TYR48      -0.2867
     17  CB        18.5910    2.4730   -0.3660 C.3    48  TYR48       0.0534
     18  CG        19.2640    2.5670   -1.7130 C.ar   48  TYR48      -0.0201
     19  CD1       20.6380    2.3400   -1.8460 C.ar   48  TYR48      -0.0009
     20  CD2       18.5360    2.8850   -2.8570 C.ar   48  TYR48      -0.0009
     21  CE1       21.2680    2.4300   -3.0890 C.ar   48  TYR48       0.0417
     22  CE2       19.1600    2.9790   -4.1060 C.ar   48  TYR48       0.0417
     23  CZ        20.5220    2.7490   -4.2110 C.ar   48  TYR48       0.1957
     24  OH        21.1340    2.8390   -5.4410 O.3    48  TYR48      -0.2866
     25  N          7.9750   10.4190    3.0840 N.3   104  THR104     -0.1203
     26  CA         9.3060   10.0740    2.6230 C.3   104  THR104      0.1994
     27  C         10.3950   10.5600    3.5680 C.2   104  THR104      0.2618
     28  O         10.1420   11.3780    4.4580 O.2   104  THR104     -0.2717
     29  CB         9.5670   10.6590    1.2220 C.3   104  THR104      0.1784
     30  OG1        9.5710   12.0910    1.2880 O.3   104  THR104     -0.2211
     31  CG2        8.4930   10.2140    0.2520 C.3   104  THR104      0.0376
     32  N         11.6130   10.0700    3.3410 N.am  105  GLY105     -0.1942
     33  CA        12.7490   10.4500    4.1580 C.3   105  GLY105      0.2014
     34  C         13.0540   11.9360    4.1150 C.2   105  GLY105      0.2638
     35  O         13.2680   12.5470    5.1630 O.2   105  GLY105     -0.2714
     36  N         13.0520   12.5310    2.9220 N.am  106  VAL106     -0.1977
     37  CA        13.3370   13.9660    2.7980 C.3   106  VAL106      0.1596
     38  C         12.3420   14.7640    3.6120 C.2   106  VAL106      0.2287
     39  O         12.7000   15.7460    4.2540 O.2   106  VAL106     -0.2864
     40  CB        13.2080   14.5200    1.3620 C.3   106  VAL106      0.0276
     41  CG1       14.3310   15.5030    1.0820 C.3   106  VAL106      0.0022
     42  CG2       13.1690   13.4370    0.3600 C.3   106  VAL106      0.0022
     43  N         23.6610   13.0360    3.0040 N.3   140  PHE140     -0.1227
     44  CA        22.6740   12.8080    1.9630 C.3   140  PHE140      0.1736
     45  C         21.3590   12.5280    2.6540 C.2   140  PHE140      0.2595
     46  O         21.2420   11.5550    3.3960 O.2   140  PHE140     -0.2718
     47  CB        23.0330   11.6260    1.0650 C.3   140  PHE140      0.0547
     48  CG        22.0540   11.4220   -0.0630 C.ar  140  PHE140     -0.0202
     49  CD1       22.1050   12.2300   -1.1950 C.ar  140  PHE140     -0.0042
     50  CD2       21.0610   10.4510    0.0180 C.ar  140  PHE140     -0.0042
     51  CE1       21.1790   12.0750   -2.2300 C.ar  140  PHE140     -0.0003
     52  CE2       20.1340   10.2900   -1.0130 C.ar  140  PHE140     -0.0003
     53  CZ        20.1900   11.1000   -2.1350 C.ar  140  PHE140     -0.0000
     54  N         20.3820   13.4050    2.4630 N.am  141  TRP141     -0.1962
     55  CA        19.0880   13.1960    3.0940 C.3   141  TRP141      0.1771
     56  C         17.9060   13.4150    2.1760 C.2   141  TRP141      0.2620
     57  O         16.7840   13.5730    2.6420 O.2   141  TRP141     -0.2715
     58  CB        18.9450   14.0140    4.3950 C.3   141  TRP141      0.0590
     59  CG        19.1040   15.5240    4.2890 C.ar  141  TRP141      0.0006
     60  CD1       20.2760   16.2290    4.2880 C.ar  141  TRP141      0.0946
     61  CD2       18.0530   16.5060    4.3230 C.ar  141  TRP141      0.0152
     62  NE1       20.0210   17.5770    4.3430 N.ar  141  TRP141     -0.2442
     63  CE2       18.6670   17.7760    4.3660 C.ar  141  TRP141      0.0810
     64  CE3       16.6530   16.4320    4.3290 C.ar  141  TRP141      0.0012
     65  CZ2       17.9330   18.9670    4.4210 C.ar  141  TRP141      0.0191
     66  CZ3       15.9190   17.6240    4.3810 C.ar  141  TRP141      0.0001
     67  CH2       16.5650   18.8710    4.4270 C.ar  141  TRP141      0.0015
     68  N         18.1400   13.3810    0.8690 N.am  142  GLY142     -0.1940
     69  CA        17.0440   13.5770   -0.0580 C.3   142  GLY142      0.2014
     70  C         17.3800   14.3920   -1.2860 C.2   142  GLY142      0.2638
     71  O         18.5400   14.7490   -1.5100 O.2   142  GLY142     -0.2714
     72  N         16.3480   14.7390   -2.0480 N.am  143  ARG143     -0.1977
     73  CA        16.5140   15.4790   -3.2920 C.3   143  ARG143      0.1597
     74  C         15.7210   16.7780   -3.4090 C.2   143  ARG143      0.2287
     75  O         15.5360   17.2950   -4.5170 O.2   143  ARG143     -0.2864
     76  CB        16.1560   14.5790   -4.4810 C.3   143  ARG143      0.0334
     77  CG        17.0430   13.3660   -4.6500 C.3   143  ARG143      0.0492
     78  CD        18.4390   13.7470   -5.0800 C.3   143  ARG143      0.2205
     79  NE        19.1180   12.5940   -5.6600 N.pl3 143  ARG143     -0.0865
     80  CZ        20.3420   12.6130   -6.1780 C.cat 143  ARG143      0.5346
     81  NH1       21.0550   13.7320   -6.1890 N.pl3 143  ARG143      0.1354
     82  NH2       20.8400   11.5150   -6.7270 N.pl3 143  ARG143      0.1354
     83  N         24.1480   11.8580   10.4080 N.3   193  GLU193     -0.1245
     84  CA        23.8290   10.4560   10.2220 C.3   193  GLU193      0.1567
     85  C         24.8570    9.7510   11.0940 C.2   193  GLU193      0.2260
     86  O         26.0440   10.0770   11.0250 O.2   193  GLU193     -0.2867
     87  CB        24.0630   10.0570    8.7670 C.3   193  GLU193      0.0388
     88  CG        23.2070   10.7920    7.7760 C.3   193  GLU193      0.1160
     89  CD        23.7300   10.6690    6.3590 C.2   193  GLU193      0.3649
     90  OE1       23.5640    9.5950    5.7430 O.co2 193  GLU193     -0.2457
     91  OE2       24.3120   11.6520    5.8580 O.co2 193  GLU193     -0.2457
     92  N         25.5880    6.7250    4.9430 N.3   197  GLY197     -0.1210
     93  CA        25.3470    5.7010    3.9510 C.3   197  GLY197      0.1956
     94  C         25.8720    6.0220    2.5680 C.2   197  GLY197      0.2611
     95  O         26.8710    5.4430    2.1360 O.2   197  GLY197     -0.2717
     96  N         25.2240    6.9560    1.8740 N.am  198  GLU198     -0.1979
     97  CA        25.6250    7.3030    0.5120 C.3   198  GLU198      0.1602
     98  C         27.0180    7.8720    0.3250 C.2   198  GLU198      0.2287
     99  O         27.5450    7.8700   -0.7950 O.2   198  GLU198     -0.2864
    100  CB        24.5710    8.1720   -0.1670 C.3   198  GLU198      0.0415
    101  CG        23.2060    7.4990   -0.2110 C.3   198  GLU198      0.1163
    102  CD        23.2960    5.9800   -0.3810 C.2   198  GLU198      0.3649
    103  OE1       23.8560    5.5150   -1.4020 O.co2 198  GLU198     -0.2457
    104  OE2       22.7940    5.2540    0.5100 O.co2 198  GLU198     -0.2457
    105  N         19.8330   11.6040   11.8070 N.3   226  ASP226     -0.1239
    106  CA        19.1560   11.0540   10.6490 C.3   226  ASP226      0.1674
    107  C         19.3910    9.5420   10.6990 C.2   226  ASP226      0.2266
    108  O         20.4610    9.0590   10.3250 O.2   226  ASP226     -0.2867
    109  CB        19.7400   11.6430    9.3640 C.3   226  ASP226      0.1410
    110  CG        19.0510   11.1180    8.0980 C.2   226  ASP226      0.3668
    111  OD1       18.2380   10.1700    8.1910 O.co2 226  ASP226     -0.2456
    112  OD2       19.3280   11.6650    7.0020 O.co2 226  ASP226     -0.2456
    113  N         17.3060    7.4290    9.1660 N.3   228  ILE228     -0.1231
    114  CA        16.4620    6.9390    8.0840 C.3   228  ILE228      0.1692
    115  C         17.0490    5.7140    7.3920 C.2   228  ILE228      0.2591
    116  O         16.3080    4.8900    6.8570 O.2   228  ILE228     -0.2718
    117  CB        16.1560    8.0760    7.0660 C.3   228  ILE228      0.0266
    118  CG1       15.3290    9.1640    7.7580 C.3   228  ILE228      0.0019
    119  CG2       15.4040    7.5450    5.8590 C.3   228  ILE228      0.0020
    120  CD1       15.0550   10.3720    6.9040 C.3   228  ILE228      0.0001
    121  N         18.3700    5.5690    7.4360 N.am  229  GLN229     -0.1979
    122  CA        19.0010    4.4150    6.8110 C.3   229  GLN229      0.1601
    123  C         19.7580    3.5300    7.8060 C.2   229  GLN229      0.2287
    124  O         19.8630    2.3200    7.6180 O.2   229  GLN229     -0.2864
    125  CB        19.9280    4.8560    5.6780 C.3   229  GLN229      0.0394
    126  CG        20.3080    3.7170    4.7540 C.3   229  GLN229      0.0908
    127  CD        21.2100    4.1300    3.6180 C.2   229  GLN229      0.2608
    128  OE1       22.1710    3.4300    3.2970 O.2   229  GLN229     -0.2717
    129  NE2       20.8880    5.2450    2.9720 N.am  229  GLN229     -0.0878
    130  N         12.3000    4.6440    5.4480 N.3   255  LYS255     -0.1245
    131  CA        12.5920    3.3990    4.7450 C.3   255  LYS255      0.1561
    132  C         12.0010    2.1070    5.3160 C.2   255  LYS255      0.2260
    133  O         10.8580    1.7560    5.0130 O.2   255  LYS255     -0.2867
    134  CB        14.1000    3.2700    4.5420 C.3   255  LYS255      0.0271
    135  CG        14.6640    4.2580    3.5420 C.3   255  LYS255      0.0035
    136  CD        16.1730    4.4410    3.7760 C.3   255  LYS255      0.0206
    137  CE        16.6790    5.6550    3.0400 C.3   255  LYS255      0.1093
    138  NZ        16.7020    5.3260    1.5690 N.3   255  LYS255     -0.1314
@<TRIPOS>BOND
     1     4     3    2
     2     3     2    1
     3     1     2    1
     4     2     5    1
     5     5     6    1
     6     6     8   ar
     7     6     7   ar
     8     8    10   ar
     9     7     9   ar
    10    10    11   ar
    11     9    11   ar
    12    11    12    1
    13    82    80    1
    14    81    80    1
    15    80    79    2
    16    79    78    1
    17    24    23    1
    18    78    77    1
    19    77    76    1
    20    75    74    2
    21    76    73    1
    22    23    22   ar
    23    23    21   ar
    24    22    20   ar
    25    74    73    1
    26    73    72    1
    27    21    19   ar
    28    20    18   ar
    29    51    53   ar
    30    51    49   ar
    31    53    52   ar
    32    72    70   am
    33    19    18   ar
    34    18    17    1
    35    71    70    2
    36   103   102   ar
    37    70    69    1
    38    49    48   ar
    39    52    50   ar
    40    99    98    2
    41    13    14    1
    42   102   101    1
    43   102   104   ar
    44    17    14    1
    45   101   100    1
    46   100    97    1
    47    48    50   ar
    48    48    47    1
    49    69    68    1
    50    31    29    1
    51    14    15    1
    52    98    97    1
    53    42    40    1
    54    97    96    1
    55    68    56   am
    56    47    44    1
    57    41    40    1
    58    29    30    1
    59    29    26    1
    60    40    37    1
    61   138   137    1
    62    15    16    2
    63    96    94   am
    64    44    45    1
    65    44    43    1
    66    95    94    2
    67    56    57    2
    68    56    55    1
    69    54    45   am
    70    54    55    1
    71    94    93    1
    72    26    25    1
    73    26    27    1
    74    45    46    2
    75    37    36    1
    76    37    38    1
    77    36    34   am
    78   129   127   am
    79   137   136    1
    80    55    58    1
    81   128   127    2
    82    32    27   am
    83    32    33    1
    84   135   136    1
    85   135   134    1
    86    27    28    2
    87    38    39    2
    88   127   126    1
    89    93    92    1
    90    34    33    1
    91    34    35    2
    92    60    59   ar
    93    60    62   ar
    94    59    61   ar
    95    59    58    1
    96    61    64   ar
    97    61    63   ar
    98    64    66   ar
    99    62    63   ar
   100    63    65   ar
   101    66    67   ar
   102    65    67   ar
   103   134   131    1
   104   131   132    1
   105   131   130    1
   106   126   125    1
   107   133   132    2
   108   125   122    1
   109    90    89   ar
   110    91    89   ar
   111   119   117    1
   112    89    88    1
   113   122   121    1
   114   122   123    1
   115   116   115    2
   116   120   118    1
   117   112   110   ar
   118   117   118    1
   119   117   114    1
   120   115   121   am
   121   115   114    1
   122   124   123    2
   123    88    87    1
   124   114   113    1
   125   110   111   ar
   126   110   109    1
   127    87    84    1
   128   109   106    1
   129    84    83    1
   130    84    85    1
   131   108   107    2
   132   106   107    1
   133   106   105    1
   134    86    85    2
