@<TRIPOS>MOLECULE
tmp/1gc1A02.pdb
 88 83 0 0 0
SMALL
GASTEIGER

@<TRIPOS>ATOM
      1  N         33.6430  -42.6710   76.0720 N.3     4  PHE4       -0.1241
      2  CA        34.3490  -41.4050   75.9540 C.3     4  PHE4        0.1605
      3  C         33.4800  -40.1640   76.1960 C.2     4  PHE4        0.2264
      4  O         32.3280  -40.0960   75.7450 O.2     4  PHE4       -0.2867
      5  CB        35.0220  -41.3190   74.5820 C.3     4  PHE4        0.0534
      6  CG        35.6680  -39.9990   74.3160 C.ar    4  PHE4       -0.0203
      7  CD1       36.8930  -39.6860   74.8860 C.ar    4  PHE4       -0.0042
      8  CD2       35.0350  -39.0550   73.5130 C.ar    4  PHE4       -0.0042
      9  CE1       37.4800  -38.4530   74.6630 C.ar    4  PHE4       -0.0003
     10  CE2       35.6130  -37.8210   73.2850 C.ar    4  PHE4       -0.0003
     11  CZ        36.8370  -37.5160   73.8580 C.ar    4  PHE4       -0.0000
     12  N         36.0990  -38.7000   90.4600 N.3    79  THR79      -0.1218
     13  CA        37.0120  -37.6250   90.1100 C.3    79  THR79       0.1862
     14  C         37.2770  -37.5960   88.6050 C.2    79  THR79       0.2287
     15  O         38.4350  -37.5520   88.1690 O.2    79  THR79      -0.2866
     16  CB        38.3450  -37.8020   90.8400 C.3    79  THR79       0.1770
     17  OG1       38.1020  -38.2340   92.1890 O.3    79  THR79      -0.2211
     18  CG2       39.1170  -36.4920   90.8610 C.3    79  THR79       0.0375
     19  N         38.0330  -36.2470   85.2250 N.3    81  ASN81      -0.1240
     20  CA        38.6970  -35.0120   84.8730 C.3    81  ASN81       0.1653
     21  C         38.6550  -34.6580   83.3940 C.2    81  ASN81       0.2266
     22  O         39.5630  -34.9710   82.6300 O.2    81  ASN81      -0.2867
     23  CB        40.1230  -35.0580   85.4220 C.3    81  ASN81       0.1155
     24  CG        40.9980  -33.9310   84.9140 C.2    81  ASN81       0.2627
     25  OD1       40.7480  -32.7520   85.1800 O.2    81  ASN81      -0.2716
     26  ND2       42.0590  -34.3090   84.2040 N.am   81  ASN81      -0.0877
     27  N         38.2650  -34.5170   79.6430 N.3    83  THR83      -0.1203
     28  CA        38.4000  -35.3860   78.4840 C.3    83  THR83       0.1994
     29  C         39.0550  -36.7040   78.8850 C.2    83  THR83       0.2618
     30  O         39.8740  -36.7440   79.8050 O.2    83  THR83      -0.2717
     31  CB        39.2750  -34.7000   77.4160 C.3    83  THR83       0.1784
     32  OG1       38.8820  -33.3270   77.2930 O.3    83  THR83      -0.2211
     33  CG2       39.1300  -35.3790   76.0690 C.3    83  THR83       0.0376
     34  N         38.6850  -37.7810   78.2010 N.am   84  GLY84      -0.1942
     35  CA        39.2780  -39.0680   78.5040 C.3    84  GLY84       0.1998
     36  C         38.2950  -40.2180   78.5100 C.2    84  GLY84       0.2480
     37  O         37.0750  -40.0160   78.5010 O.2    84  GLY84      -0.2729
     38  N         38.8090  -41.4560   78.5080 N.am   85  PRO85      -0.2726
     39  CA        37.9730  -42.6530   78.5130 C.3    85  PRO85       0.1402
     40  C         37.4660  -42.9810   79.9130 C.2    85  PRO85       0.2269
     41  O         38.1910  -43.5550   80.7330 O.2    85  PRO85      -0.2865
     42  CB        38.9240  -43.7220   77.9810 C.3    85  PRO85       0.0296
     43  CG        40.2220  -43.3100   78.5570 C.3    85  PRO85       0.0237
     44  CD        40.2310  -41.8110   78.3550 C.3    85  PRO85       0.0939
     45  N         39.2060  -30.4060   91.8550 N.3   118  VAL118     -0.1231
     46  CA        39.4870  -30.8560   90.5000 C.3   118  VAL118      0.1692
     47  C         39.3890  -29.6640   89.5620 C.2   118  VAL118      0.2591
     48  O         38.4240  -28.9100   89.6180 O.2   118  VAL118     -0.2718
     49  CB        38.4750  -31.9160   90.0360 C.3   118  VAL118      0.0266
     50  CG1       38.8540  -32.4360   88.6520 C.3   118  VAL118      0.0020
     51  CG2       38.4130  -33.0500   91.0310 C.3   118  VAL118      0.0020
     52  N         40.3870  -29.5000   88.7030 N.am  119  ILE119     -0.1980
     53  CA        40.4180  -28.4020   87.7440 C.3   119  ILE119      0.1595
     54  C         40.2490  -29.0290   86.3670 C.2   119  ILE119      0.2287
     55  O         40.4710  -30.2230   86.2020 O.2   119  ILE119     -0.2864
     56  CB        41.7650  -27.6190   87.8220 C.3   119  ILE119      0.0276
     57  CG1       42.9430  -28.5500   87.5010 C.3   119  ILE119      0.0022
     58  CG2       41.9300  -26.9920   89.2110 C.3   119  ILE119      0.0022
     59  CD1       44.3070  -27.9440   87.7240 C.3   119  ILE119      0.0001
     60  N         45.6520  -26.9610   78.9990 N.3   124  PHE124     -0.1241
     61  CA        46.2960  -26.2650   80.1100 C.3   124  PHE124      0.1605
     62  C         47.5290  -25.5030   79.6400 C.2   124  PHE124      0.2264
     63  O         48.0880  -24.7070   80.3950 O.2   124  PHE124     -0.2867
     64  CB        46.7140  -27.2580   81.2020 C.3   124  PHE124      0.0534
     65  CG        45.5670  -27.8910   81.9330 C.ar  124  PHE124     -0.0203
     66  CD1       45.0150  -29.0810   81.4900 C.ar  124  PHE124     -0.0042
     67  CD2       45.0590  -27.3120   83.0920 C.ar  124  PHE124     -0.0042
     68  CE1       43.9740  -29.6970   82.1900 C.ar  124  PHE124     -0.0003
     69  CE2       44.0130  -27.9210   83.8000 C.ar  124  PHE124     -0.0003
     70  CZ        43.4740  -29.1180   83.3470 C.ar  124  PHE124     -0.0000
     71  N         47.8390  -27.3640   92.7570 N.3   166  LYS166     -0.1245
     72  CA        47.6420  -28.0650   91.4890 C.3   166  LYS166      0.1561
     73  C         47.5590  -27.2300   90.2210 C.2   166  LYS166      0.2260
     74  O         47.3210  -27.7880   89.1520 O.2   166  LYS166     -0.2867
     75  CB        46.4130  -28.9750   91.5650 C.3   166  LYS166      0.0271
     76  CG        45.1290  -28.2810   91.9990 C.3   166  LYS166      0.0035
     77  CD        44.0280  -29.3040   92.2760 C.3   166  LYS166      0.0206
     78  CE        43.7200  -30.1350   91.0340 C.3   166  LYS166      0.1093
     79  NZ        43.9680  -31.5710   91.2450 N.3   166  LYS166     -0.1314
     80  N         50.2800  -28.4290   86.3750 N.3   170  GLN170     -0.1245
     81  CA        49.4730  -29.6470   86.4080 C.3   170  GLN170      0.1566
     82  C         49.7180  -30.4600   87.6560 C.2   170  GLN170      0.2260
     83  O         50.3000  -31.5490   87.6110 O.2   170  GLN170     -0.2867
     84  CB        49.6490  -30.4830   85.1320 C.3   170  GLN170      0.0367
     85  CG        48.8800  -29.9460   83.9300 C.3   170  GLN170      0.0905
     86  CD        47.4040  -29.7850   84.2260 C.2   170  GLN170      0.2608
     87  OE1       46.5890  -30.6190   83.8380 O.2   170  GLN170     -0.2717
     88  NE2       47.0510  -28.7080   84.9220 N.am  170  GLN170     -0.0878
@<TRIPOS>BOND
     1    10     8   ar
     2    10    11   ar
     3     8     6   ar
     4    11     9   ar
     5     6     5    1
     6     6     7   ar
     7     5     2    1
     8     9     7   ar
     9     4     3    2
    10     2     1    1
    11     2     3    1
    12    33    31    1
    13    32    31    1
    14    31    28    1
    15    42    39    1
    16    42    43    1
    17    34    35    1
    18    34    29   am
    19    44    38    1
    20    44    43    1
    21    28    29    1
    22    28    27    1
    23    37    36    2
    24    35    36    1
    25    38    36   am
    26    38    39    1
    27    39    40    1
    28    29    30    2
    29    60    61    1
    30    62    61    1
    31    62    63    2
    32    40    41    2
    33    61    64    1
    34    64    65    1
    35    66    65   ar
    36    66    68   ar
    37    65    67   ar
    38    68    70   ar
    39    22    21    2
    40    67    69   ar
    41    70    69   ar
    42    21    20    1
    43    87    86    2
    44    85    86    1
    45    85    84    1
    46    26    24   am
    47    86    88   am
    48    20    19    1
    49    20    23    1
    50    24    25    2
    51    24    23    1
    52    84    81    1
    53    55    54    2
    54    54    53    1
    55    80    81    1
    56    81    82    1
    57    57    59    1
    58    57    56    1
    59    83    82    2
    60    53    56    1
    61    53    52    1
    62    56    58    1
    63    15    14    2
    64    14    13    1
    65    50    49    1
    66    52    47   am
    67    74    73    2
    68    47    48    2
    69    47    46    1
    70    49    46    1
    71    49    51    1
    72    13    12    1
    73    13    16    1
    74    73    72    1
    75    46    45    1
    76    16    18    1
    77    16    17    1
    78    78    79    1
    79    78    77    1
    80    72    75    1
    81    72    71    1
    82    75    76    1
    83    76    77    1
