@<TRIPOS>MOLECULE
tmp/1gc1A08.pdb
 101 99 0 0 0
SMALL
GASTEIGER

@<TRIPOS>ATOM
      1  N         37.2070  -14.5890  105.5160 N.3   153  ARG153     -0.1245
      2  CA        38.6170  -14.4730  105.1740 C.3   153  ARG153      0.1563
      3  C         39.3840  -15.7940  105.2970 C.2   153  ARG153      0.2260
      4  O         40.2330  -16.1030  104.4640 O.2   153  ARG153     -0.2867
      5  CB        39.2460  -13.4190  106.0850 C.3   153  ARG153      0.0307
      6  CG        40.7470  -13.3450  106.0440 C.3   153  ARG153      0.0489
      7  CD        41.2560  -12.2990  107.0270 C.3   153  ARG153      0.2205
      8  NE        40.5770  -11.0120  106.8690 N.pl3 153  ARG153     -0.0865
      9  CZ        40.9030   -9.9020  107.5260 C.cat 153  ARG153      0.5346
     10  NH1       41.9150   -9.9060  108.3860 N.pl3 153  ARG153      0.1354
     11  NH2       40.1840   -8.7990  107.3630 N.pl3 153  ARG153      0.1354
     12  N         38.0350  -18.7080  102.6830 N.3   156  TRP156     -0.1227
     13  CA        38.5280  -18.5280  101.3240 C.3   156  TRP156      0.1737
     14  C         40.0360  -18.6050  101.1260 C.2   156  TRP156      0.2595
     15  O         40.4980  -18.9970  100.0500 O.2   156  TRP156     -0.2718
     16  CB        37.9830  -17.2380  100.7040 C.3   156  TRP156      0.0564
     17  CG        37.6570  -17.4250   99.2630 C.ar  156  TRP156      0.0003
     18  CD1       36.5780  -18.0830   98.7430 C.ar  156  TRP156      0.0946
     19  CD2       38.4260  -16.9790   98.1440 C.ar  156  TRP156      0.0152
     20  NE1       36.6270  -18.0710   97.3680 N.ar  156  TRP156     -0.2442
     21  CE2       37.7530  -17.4030   96.9750 C.ar  156  TRP156      0.0810
     22  CE3       39.6180  -16.2610   98.0120 C.ar  156  TRP156      0.0012
     23  CZ2       38.2310  -17.1340   95.6960 C.ar  156  TRP156      0.0191
     24  CZ3       40.0910  -15.9970   96.7430 C.ar  156  TRP156      0.0001
     25  CH2       39.4000  -16.4320   95.5990 C.ar  156  TRP156      0.0015
     26  N         40.8120  -18.2160  102.1320 N.am  157  ASN157     -0.1974
     27  CA        42.2560  -18.2760  101.9690 C.3   157  ASN157      0.1688
     28  C         42.6810  -19.7470  101.9170 C.2   157  ASN157      0.2292
     29  O         43.6530  -20.1090  101.2500 O.2   157  ASN157     -0.2864
     30  CB        42.9720  -17.5210  103.0900 C.3   157  ASN157      0.1181
     31  CG        44.4110  -17.1750  102.7330 C.2   157  ASN157      0.2629
     32  OD1       45.3580  -17.6690  103.3540 O.2   157  ASN157     -0.2716
     33  ND2       44.5790  -16.3340  101.7120 N.am  157  ASN157     -0.0877
     34  N         42.1600  -21.3060   98.5150 N.3   160  LEU160     -0.1245
     35  CA        43.1620  -20.7650   97.6140 C.3   160  LEU160      0.1561
     36  C         44.4000  -21.6240   97.5840 C.2   160  LEU160      0.2260
     37  O         44.9040  -21.9400   96.5100 O.2   160  LEU160     -0.2867
     38  CB        43.5210  -19.3320   98.0000 C.3   160  LEU160      0.0270
     39  CG        42.6150  -18.1750   97.5670 C.3   160  LEU160      0.0019
     40  CD1       42.9330  -16.9640   98.4230 C.3   160  LEU160      0.0001
     41  CD2       42.7940  -17.8660   96.0790 C.3   160  LEU160      0.0001
     42  N         40.4560   -8.2420   96.1010 N.3   207  GLN207     -0.1231
     43  CA        40.8060   -8.8760   97.3770 C.3   207  GLN207      0.1698
     44  C         40.7280  -10.3880   97.4330 C.2   207  GLN207      0.2592
     45  O         41.1260  -10.9910   98.4290 O.2   207  GLN207     -0.2718
     46  CB        39.9420   -8.3310   98.4980 C.3   207  GLN207      0.0381
     47  CG        40.1750   -6.8950   98.8260 C.3   207  GLN207      0.0905
     48  CD        39.1640   -6.4190   99.8160 C.2   207  GLN207      0.2608
     49  OE1       38.0190   -6.1500   99.4560 O.2   207  GLN207     -0.2717
     50  NE2       39.5470   -6.3780  101.0870 N.am  207  GLN207     -0.0878
     51  N         40.1350  -10.9970   96.4180 N.am  208  LEU208     -0.1980
     52  CA        40.0320  -12.4360   96.3960 C.3   208  LEU208      0.1596
     53  C         41.1910  -12.9880   95.5810 C.2   208  LEU208      0.2287
     54  O         41.7870  -14.0070   95.9410 O.2   208  LEU208     -0.2864
     55  CB        38.6860  -12.8660   95.8120 C.3   208  LEU208      0.0297
     56  CG        37.4460  -12.4720   96.6280 C.3   208  LEU208      0.0022
     57  CD1       36.1830  -12.8910   95.9130 C.3   208  LEU208      0.0001
     58  CD2       37.5020  -13.1140   97.9940 C.3   208  LEU208      0.0001
     59  N         44.6320  -11.7830   94.8260 N.3   210  ASN210     -0.1225
     60  CA        45.8130  -10.9490   95.0120 C.3   210  ASN210      0.1785
     61  C         46.6000  -11.5650   96.1690 C.2   210  ASN210      0.2598
     62  O         46.4770  -11.1530   97.3250 O.2   210  ASN210     -0.2718
     63  CB        45.3950   -9.5060   95.3230 C.3   210  ASN210      0.1169
     64  CG        46.5770   -8.5460   95.3830 C.2   210  ASN210      0.2627
     65  OD1       47.0670   -8.0960   94.3430 O.2   210  ASN210     -0.2716
     66  ND2       47.0550   -8.2340   96.5880 N.am  210  ASN210     -0.0877
     67  N         47.3960  -12.5770   95.8510 N.am  211  SER211     -0.1938
     68  CA        48.1800  -13.2710   96.8570 C.3   211  SER211      0.2055
     69  C         49.2510  -14.1040   96.1880 C.2   211  SER211      0.2644
     70  O         49.2890  -14.2000   94.9630 O.2   211  SER211     -0.2714
     71  CB        47.2670  -14.1780   97.6680 C.3   211  SER211      0.2130
     72  OG        46.4660  -14.9770   96.8150 O.3   211  SER211     -0.2179
     73  N         50.1280  -14.6950   96.9910 N.am  212  THR212     -0.1936
     74  CA        51.1880  -15.5310   96.4570 C.3   212  THR212      0.2028
     75  C         51.3570  -16.7900   97.2990 C.2   212  THR212      0.2642
     76  O         51.1730  -16.7700   98.5220 O.2   212  THR212     -0.2714
     77  CB        52.5120  -14.7810   96.3650 C.3   212  THR212      0.1808
     78  OG1       52.2870  -13.4920   95.7820 O.3   212  THR212     -0.2208
     79  CG2       53.4710  -15.5480   95.4850 C.3   212  THR212      0.0379
     80  N         51.6540  -17.8900   96.6130 N.am  213  TRP213     -0.1973
     81  CA        51.8320  -19.1910   97.2350 C.3   213  TRP213      0.1640
     82  C         52.9140  -19.9420   96.4750 C.2   213  TRP213      0.2290
     83  O         53.5010  -19.4340   95.5100 O.2   213  TRP213     -0.2864
     84  CB        50.5430  -20.0220   97.1380 C.3   213  TRP213      0.0576
     85  CG        49.2620  -19.2740   97.3770 C.ar  213  TRP213      0.0006
     86  CD1       48.6170  -18.4470   96.4970 C.ar  213  TRP213      0.0946
     87  CD2       48.4540  -19.3080   98.5620 C.ar  213  TRP213      0.0152
     88  NE1       47.4630  -17.9690   97.0620 N.ar  213  TRP213     -0.2442
     89  CE2       47.3360  -18.4790   98.3280 C.ar  213  TRP213      0.0810
     90  CE3       48.5660  -19.9560   99.7980 C.ar  213  TRP213      0.0012
     91  CZ2       46.3340  -18.2860   99.2800 C.ar  213  TRP213      0.0191
     92  CZ3       47.5600  -19.7610  100.7520 C.ar  213  TRP213      0.0001
     93  CH2       46.4630  -18.9310  100.4820 C.ar  213  TRP213      0.0015
     94  N         36.1590  -10.8430  104.4790 N.3   219  ILE219     -0.1245
     95  CA        36.6140  -10.1870  103.2680 C.3   219  ILE219      0.1561
     96  C         35.4580   -9.3800  102.7050 C.2   219  ILE219      0.2260
     97  O         34.5100   -9.9450  102.1530 O.2   219  ILE219     -0.2867
     98  CB        37.0670  -11.1930  102.1900 C.3   219  ILE219      0.0252
     99  CG1       38.2770  -11.9920  102.6710 C.3   219  ILE219      0.0019
    100  CG2       37.4130  -10.4550  100.9080 C.3   219  ILE219      0.0019
    101  CD1       38.8580  -12.9240  101.6220 C.3   219  ILE219      0.0001
@<TRIPOS>BOND
     1    65    64    2
     2    59    60    1
     3    70    69    2
     4    60    63    1
     5    60    61    1
     6    63    64    1
     7    64    66   am
     8    79    77    1
     9    83    82    2
    10    53    54    2
    11    53    52    1
    12    25    23   ar
    13    25    24   ar
    14    23    21   ar
    15    78    77    1
    16    55    52    1
    17    55    56    1
    18    67    61   am
    19    67    68    1
    20    57    56    1
    21    41    39    1
    22    42    43    1
    23    61    62    2
    24    69    68    1
    25    69    73   am
    26    77    74    1
    27    52    51    1
    28    51    44   am
    29    74    73    1
    30    74    75    1
    31    82    81    1
    32    86    88   ar
    33    86    85   ar
    34    37    36    2
    35    80    81    1
    36    80    75   am
    37    56    58    1
    38    24    22   ar
    39    72    71    1
    40    68    71    1
    41    21    20   ar
    42    21    19   ar
    43    88    89   ar
    44    84    81    1
    45    84    85    1
    46    75    76    2
    47    20    18   ar
    48    43    44    1
    49    43    46    1
    50    85    87   ar
    51    44    45    2
    52    39    38    1
    53    39    40    1
    54    36    35    1
    55    35    38    1
    56    35    34    1
    57    22    19   ar
    58    19    17   ar
    59    89    87   ar
    60    89    91   ar
    61    46    47    1
    62    87    90   ar
    63    18    17   ar
    64    47    48    1
    65    17    16    1
    66    91    93   ar
    67    49    48    2
    68    90    92   ar
    69    48    50   am
    70    15    14    2
    71    93    92   ar
    72    16    13    1
    73   100    98    1
    74    14    13    1
    75    14    26   am
    76    29    28    2
    77    13    12    1
    78   101    99    1
    79    33    31   am
    80    28    27    1
    81    27    26    1
    82    27    30    1
    83    97    96    2
    84    98    99    1
    85    98    95    1
    86    96    95    1
    87    31    30    1
    88    31    32    2
    89    95    94    1
    90     4     3    2
    91     2     3    1
    92     2     1    1
    93     2     5    1
    94     6     5    1
    95     6     7    1
    96     8     7    1
    97     8     9    2
    98    11     9    1
    99     9    10    1
