@<TRIPOS>MOLECULE
tmp/1gc3B01.pdb
 152 143 0 0 0
SMALL
GASTEIGER

@<TRIPOS>ATOM
      1  N         23.7200    6.6310   72.9920 N.3    39  GLY39      -0.1225
      2  CA        23.4590    5.3110   73.5320 C.3    39  GLY39       0.1811
      3  C         22.9620    4.4560   72.3790 C.2    39  GLY39       0.2280
      4  O         23.0890    3.2360   72.3870 O.2    39  GLY39      -0.2866
      5  N         11.0240   -2.6630   77.0450 N.3    99  GLY99      -0.1210
      6  CA        12.4340   -2.3040   77.0240 C.3    99  GLY99       0.1956
      7  C         13.2400   -3.0020   78.1080 C.2    99  GLY99       0.2612
      8  O         12.6860   -3.5030   79.0900 O.2    99  GLY99      -0.2717
      9  N         14.5550   -3.0550   77.9160 N.am  100  GLY100     -0.1942
     10  CA        15.4220   -3.6820   78.8970 C.3   100  GLY100      0.2014
     11  C         15.3770   -2.9320   80.2150 C.2   100  GLY100      0.2639
     12  O         15.7470   -3.4640   81.2650 O.2   100  GLY100     -0.2714
     13  N         14.9320   -1.6830   80.1510 N.am  101  SER101     -0.1949
     14  CA        14.8200   -0.8410   81.3260 C.3   101  SER101      0.1924
     15  C         13.7000   -1.4550   82.1440 C.2   101  SER101      0.2314
     16  O         13.9400   -1.9530   83.2400 O.2   101  SER101     -0.2863
     17  CB        14.4660    0.5900   80.9300 C.3   101  SER101      0.2116
     18  OG        15.5160    1.1800   80.1810 O.3   101  SER101     -0.2180
     19  N         14.6640   -4.5320   84.0070 N.3   104  LEU104     -0.1245
     20  CA        15.4720   -4.2450   85.1830 C.3   104  LEU104      0.1561
     21  C         14.6380   -3.6140   86.2930 C.2   104  LEU104      0.2260
     22  O         14.8420   -3.9220   87.4640 O.2   104  LEU104     -0.2867
     23  CB        16.6550   -3.3490   84.8240 C.3   104  LEU104      0.0270
     24  CG        17.8570   -4.0620   84.2060 C.3   104  LEU104      0.0019
     25  CD1       18.7190   -3.0770   83.4440 C.3   104  LEU104      0.0001
     26  CD2       18.6530   -4.7440   85.3010 C.3   104  LEU104      0.0001
     27  N         26.8300    1.4320   84.9070 N.3   125  TRP125     -0.1241
     28  CA        25.8040    2.1670   84.1950 C.3   125  TRP125      0.1605
     29  C         24.8790    2.9560   85.1010 C.2   125  TRP125      0.2264
     30  O         24.1960    2.4020   85.9610 O.2   125  TRP125     -0.2867
     31  CB        24.9690    1.2360   83.3330 C.3   125  TRP125      0.0550
     32  CG        23.8670    1.9580   82.6120 C.ar  125  TRP125      0.0003
     33  CD1       23.9650    3.1410   81.9250 C.ar  125  TRP125      0.0946
     34  CD2       22.4960    1.5640   82.5330 C.ar  125  TRP125      0.0152
     35  NE1       22.7400    3.5040   81.4350 N.ar  125  TRP125     -0.2442
     36  CE2       21.8170    2.5570   81.7950 C.ar  125  TRP125      0.0810
     37  CE3       21.7700    0.4640   83.0150 C.ar  125  TRP125      0.0012
     38  CZ2       20.4470    2.4870   81.5310 C.ar  125  TRP125      0.0191
     39  CZ3       20.4040    0.3940   82.7490 C.ar  125  TRP125      0.0001
     40  CH2       19.7600    1.4000   82.0170 C.ar  125  TRP125      0.0015
     41  N         21.4220    1.6570   87.3230 N.3   128  TYR128     -0.1241
     42  CA        21.3700    0.5340   88.2420 C.3   128  TYR128      0.1605
     43  C         21.1450    0.9970   89.6860 C.2   128  TYR128      0.2264
     44  O         20.2000    0.5660   90.3400 O.2   128  TYR128     -0.2867
     45  CB        22.6630   -0.2730   88.1500 C.3   128  TYR128      0.0534
     46  CG        22.8300   -1.0210   86.8590 C.ar  128  TYR128     -0.0201
     47  CD1       24.0710   -1.1000   86.2420 C.ar  128  TYR128     -0.0009
     48  CD2       21.7590   -1.7010   86.2840 C.ar  128  TYR128     -0.0009
     49  CE1       24.2460   -1.8450   85.0920 C.ar  128  TYR128      0.0417
     50  CE2       21.9250   -2.4490   85.1330 C.ar  128  TYR128      0.0417
     51  CZ        23.1670   -2.5180   84.5480 C.ar  128  TYR128      0.1957
     52  OH        23.3340   -3.2840   83.4310 O.3   128  TYR128     -0.2866
     53  N         27.3200   -6.9380   84.1920 N.3   171  ASN171     -0.1240
     54  CA        26.9070   -6.5550   82.8580 C.3   171  ASN171      0.1653
     55  C         28.1540   -6.5790   81.9850 C.2   171  ASN171      0.2266
     56  O         29.0230   -5.7170   82.0960 O.2   171  ASN171     -0.2867
     57  CB        26.2700   -5.1650   82.9010 C.3   171  ASN171      0.1155
     58  CG        26.2610   -4.4560   81.5490 C.2   171  ASN171      0.2627
     59  OD1       26.2230   -3.2290   81.5040 O.2   171  ASN171     -0.2716
     60  ND2       26.2900   -5.2130   80.4500 N.am  171  ASN171     -0.0877
     61  N         28.9440   -1.5950   80.6930 N.3   175  ASN175     -0.1240
     62  CA        28.4440   -0.2950   80.2670 C.3   175  ASN175      0.1653
     63  C         29.3600    0.8610   80.0500 C.2   175  ASN175      0.2266
     64  O         29.6010    1.1350   78.8520 O.2   175  ASN175     -0.2867
     65  CB        27.1470    0.1960   80.9210 C.3   175  ASN175      0.1155
     66  CG        26.4120    1.2590   80.0310 C.2   175  ASN175      0.2627
     67  OD1       27.0410    2.1110   79.4000 O.2   175  ASN175     -0.2716
     68  ND2       25.0930    1.1930   79.9880 N.am  175  ASN175     -0.0877
     69  N         22.9490   -8.4510   82.8200 N.3   203  ASP203     -0.1239
     70  CA        22.4470   -7.5080   81.8370 C.3   203  ASP203      0.1674
     71  C         23.2320   -7.7160   80.5630 C.2   203  ASP203      0.2266
     72  O         24.0890   -6.9080   80.2070 O.2   203  ASP203     -0.2867
     73  CB        22.6230   -6.0750   82.3290 C.3   203  ASP203      0.1410
     74  CG        21.8440   -5.0770   81.4980 C.2   203  ASP203      0.3668
     75  OD1       22.3910   -4.0080   81.1730 O.co2 203  ASP203     -0.2456
     76  OD2       20.6770   -5.3600   81.1630 O.co2 203  ASP203     -0.2456
     77  N         22.2730   -7.8890   76.9640 N.3   205  ILE205     -0.1231
     78  CA        22.0140   -6.9090   75.8970 C.3   205  ILE205      0.1692
     79  C         23.0030   -6.6000   74.7640 C.2   205  ILE205      0.2592
     80  O         22.6860   -6.7940   73.5850 O.2   205  ILE205     -0.2718
     81  CB        21.5400   -5.5720   76.5450 C.3   205  ILE205      0.0266
     82  CG1       21.0670   -4.5700   75.5050 C.3   205  ILE205      0.0019
     83  CG2       22.6490   -4.9600   77.3700 C.3   205  ILE205      0.0020
     84  CD1       20.6030   -3.2810   76.1390 C.3   205  ILE205      0.0001
     85  N         24.1930   -6.1230   75.1400 N.am  206  TYR206     -0.1976
     86  CA        25.2780   -5.7820   74.2140 C.3   206  TYR206      0.1639
     87  C         26.0060   -7.0070   73.6740 C.2   206  TYR206      0.2290
     88  O         27.0440   -6.8710   73.0230 O.2   206  TYR206     -0.2864
     89  CB        26.3130   -4.8820   74.9040 C.3   206  TYR206      0.0560
     90  CG        25.8430   -3.4780   75.1430 C.ar  206  TYR206     -0.0198
     91  CD1       26.1180   -2.4720   74.2270 C.ar  206  TYR206     -0.0009
     92  CD2       25.0880   -3.1590   76.2690 C.ar  206  TYR206     -0.0009
     93  CE1       25.6490   -1.1810   74.4210 C.ar  206  TYR206      0.0417
     94  CE2       24.6110   -1.8740   76.4730 C.ar  206  TYR206      0.0417
     95  CZ        24.8920   -0.8920   75.5460 C.ar  206  TYR206      0.1957
     96  OH        24.3950    0.3730   75.7330 O.3   206  TYR206     -0.2866
     97  N         17.5650   -7.3620   75.2610 N.3   231  GLY231     -0.1225
     98  CA        16.5820   -6.5620   74.5520 C.3   231  GLY231      0.1811
     99  C         16.8890   -6.3590   73.0820 C.2   231  GLY231      0.2280
    100  O         18.0180   -6.5550   72.6400 O.2   231  GLY231     -0.2866
    101  N         16.6100   -3.3980   71.3050 N.3   233  ALA233     -0.1231
    102  CA        17.2850   -2.1230   71.0880 C.3   233  ALA233      0.1694
    103  C         18.6660   -1.9910   70.4580 C.2   233  ALA233      0.2591
    104  O         18.7830   -1.5750   69.3100 O.2   233  ALA233     -0.2718
    105  CB        17.2360   -1.3150   72.3640 C.3   233  ALA233      0.0304
    106  N         19.7070   -2.3480   71.2060 N.am  234  LYS234     -0.1980
    107  CA        21.0810   -2.2510   70.7130 C.3   234  LYS234      0.1596
    108  C         21.5440   -3.0980   69.5400 C.2   234  LYS234      0.2287
    109  O         22.2800   -2.6120   68.6880 O.2   234  LYS234     -0.2864
    110  CB        22.0660   -2.4260   71.8640 C.3   234  LYS234      0.0298
    111  CG        21.6850   -1.6440   73.1010 C.3   234  LYS234      0.0038
    112  CD        22.1490   -0.2050   73.0620 C.3   234  LYS234      0.0206
    113  CE        21.5780    0.6010   74.2180 C.3   234  LYS234      0.1093
    114  NZ        20.1830    1.0680   73.9960 N.3   234  LYS234     -0.1314
    115  N         16.0430    0.9460   69.4690 N.3   239  THR239     -0.1218
    116  CA        15.8370    1.7000   70.7010 C.3   239  THR239      0.1862
    117  C         14.4500    2.3080   70.8470 C.2   239  THR239      0.2287
    118  O         13.6940    1.9340   71.7430 O.2   239  THR239     -0.2866
    119  CB        16.8920    2.8180   70.8920 C.3   239  THR239      0.1770
    120  OG1       16.5550    3.9560   70.0930 O.3   239  THR239     -0.2211
    121  CG2       18.2570    2.3300   70.5010 C.3   239  THR239      0.0375
    122  N         10.9800    0.4540   71.8850 N.3   242  ARG242     -0.1231
    123  CA        10.6530    0.0780   73.2610 C.3   242  ARG242      0.1694
    124  C         10.2990   -1.3830   73.4740 C.2   242  ARG242      0.2591
    125  O          9.1250   -1.7160   73.6660 O.2   242  ARG242     -0.2718
    126  CB         9.5060    0.9200   73.8560 C.3   242  ARG242      0.0321
    127  CG         9.7830    2.3860   74.1210 C.3   242  ARG242      0.0489
    128  CD        11.2350    2.6780   74.4380 C.3   242  ARG242      0.2205
    129  NE        11.7550    2.0210   75.6300 N.pl3 242  ARG242     -0.0865
    130  CZ        13.0370    1.7030   75.7800 C.cat 242  ARG242      0.5346
    131  NH1       13.8930    1.9750   74.8040 N.pl3 242  ARG242      0.1354
    132  NH2       13.4740    1.1630   76.9110 N.pl3 242  ARG242      0.1354
    133  N         11.3020   -2.2510   73.4000 N.am  243  ILE243     -0.1980
    134  CA        11.1040   -3.6760   73.6340 C.3   243  ILE243      0.1595
    135  C         12.3360   -4.3510   74.2050 C.2   243  ILE243      0.2287
    136  O         13.4530   -4.1520   73.7310 O.2   243  ILE243     -0.2864
    137  CB        10.5840   -4.4240   72.3810 C.3   243  ILE243      0.0276
    138  CG1        9.0580   -4.4040   72.3870 C.3   243  ILE243      0.0022
    139  CG2       11.0660   -5.8620   72.3570 C.3   243  ILE243      0.0022
    140  CD1        8.4330   -5.3580   71.4340 C.3   243  ILE243      0.0001
    141  N         31.2630    2.1300   73.8030 N.3   322  TYR322     -0.1241
    142  CA        31.6670    3.2110   74.6960 C.3   322  TYR322      0.1605
    143  C         33.1710    3.0830   74.9300 C.2   322  TYR322      0.2264
    144  O         33.7700    2.0410   74.6450 O.2   322  TYR322     -0.2867
    145  CB        30.9250    3.0970   76.0270 C.3   322  TYR322      0.0534
    146  CG        29.4280    2.9770   75.8610 C.ar  322  TYR322     -0.0201
    147  CD1       28.7610    1.7850   76.1620 C.ar  322  TYR322     -0.0009
    148  CD2       28.6790    4.0450   75.3730 C.ar  322  TYR322     -0.0009
    149  CE1       27.3950    1.6640   75.9800 C.ar  322  TYR322      0.0417
    150  CE2       27.3160    3.9340   75.1870 C.ar  322  TYR322      0.0417
    151  CZ        26.6820    2.7440   75.4900 C.ar  322  TYR322      0.1957
    152  OH        25.3300    2.6430   75.2860 O.3   322  TYR322     -0.2866
@<TRIPOS>BOND
     1   109   108    2
     2   104   103    2
     3   115   116    1
     4   108   107    1
     5   120   119    1
     6   103   102    1
     7   103   106   am
     8   121   119    1
     9   116   117    1
    10   116   119    1
    11   107   106    1
    12   107   110    1
    13   117   118    2
    14   102   101    1
    15   102   105    1
    16   140   138    1
    17   110   111    1
    18   122   123    1
    19   139   137    1
    20     3     4    2
    21     3     2    1
    22   137   138    1
    23   137   134    1
    24   100    99    2
    25     1     2    1
    26    88    87    2
    27   112   111    1
    28   112   113    1
    29    99    98    1
    30   123   124    1
    31   123   126    1
    32   133   124   am
    33   133   134    1
    34   124   125    2
    35    80    79    2
    36   134   135    1
    37    87    86    1
    38   136   135    2
    39   141   142    1
    40   126   127    1
    41   114   113    1
    42   127   128    1
    43    86    89    1
    44    86    85    1
    45    91    93   ar
    46    91    90   ar
    47    93    95   ar
    48   128   129    1
    49    98    97    1
    50   144   143    2
    51   142   143    1
    52   142   145    1
    53    79    85   am
    54    79    78    1
    55   131   130    1
    56    89    90    1
    57    90    92   ar
    58   150   148   ar
    59   150   151   ar
    60   152   151    1
    61   148   146   ar
    62   151   149   ar
    63    82    84    1
    64    82    81    1
    65    95    96    1
    66    95    94   ar
    67   129   130    2
    68   130   132    1
    69   146   145    1
    70   146   147   ar
    71    78    81    1
    72    78    77    1
    73   149   147   ar
    74    92    94   ar
    75    81    83    1
    76     6     5    1
    77     6     7    1
    78     9     7   am
    79     9    10    1
    80     7     8    2
    81    64    63    2
    82    10    11    1
    83    67    66    2
    84    68    66   am
    85    66    65    1
    86    63    62    1
    87    13    11   am
    88    13    14    1
    89    18    17    1
    90    72    71    2
    91    11    12    2
    92    62    61    1
    93    62    65    1
    94    60    58   am
    95    71    70    1
    96    17    14    1
    97    76    74   ar
    98    75    74   ar
    99    14    15    1
   100    35    36   ar
   101    35    33   ar
   102    74    73    1
   103    59    58    2
   104    38    36   ar
   105    38    40   ar
   106    58    57    1
   107    36    34   ar
   108    70    73    1
   109    70    69    1
   110    33    32   ar
   111    55    56    2
   112    55    54    1
   113    40    39   ar
   114    15    16    2
   115    34    32   ar
   116    34    37   ar
   117    32    31    1
   118    39    37   ar
   119    54    57    1
   120    54    53    1
   121    31    28    1
   122    52    51    1
   123    25    24    1
   124    19    20    1
   125    28    27    1
   126    28    29    1
   127    24    23    1
   128    24    26    1
   129    51    49   ar
   130    51    50   ar
   131    23    20    1
   132    49    47   ar
   133    29    30    2
   134    50    48   ar
   135    20    21    1
   136    47    46   ar
   137    48    46   ar
   138    21    22    2
   139    46    45    1
   140    41    42    1
   141    45    42    1
   142    42    43    1
   143    43    44    2
