@<TRIPOS>MOLECULE
tmp/1gc3B00.pdb
 142 135 0 0 0
SMALL
GASTEIGER

@<TRIPOS>ATOM
      1  N         23.2070   11.7050   81.1810 N.3    16  VAL16      -0.1231
      2  CA        23.0790   11.7640   79.7220 C.3    16  VAL16       0.1692
      3  C         21.9300   12.6650   79.2580 C.2    16  VAL16       0.2591
      4  O         22.0660   13.4150   78.2890 O.2    16  VAL16      -0.2718
      5  CB        22.9110   10.3430   79.1030 C.3    16  VAL16       0.0266
      6  CG1       21.9070    9.5180   79.8990 C.3    16  VAL16       0.0020
      7  CG2       22.4500   10.4440   77.6570 C.3    16  VAL16       0.0020
      8  N         20.8010   12.5870   79.9520 N.am   17  VAL17      -0.1980
      9  CA        19.6420   13.4060   79.6180 C.3    17  VAL17       0.1595
     10  C         19.9410   14.9070   79.7420 C.2    17  VAL17       0.2287
     11  O         19.3710   15.7320   79.0300 O.2    17  VAL17      -0.2864
     12  CB        18.4430   12.9820   80.4770 C.3    17  VAL17       0.0276
     13  CG1       17.4290   14.1120   80.6420 C.3    17  VAL17       0.0022
     14  CG2       17.8180   11.7680   79.8460 C.3    17  VAL17       0.0022
     15  N         22.2060   16.1550   76.8040 N.3    20  ASN20      -0.1240
     16  CA        21.3720   16.2150   75.6060 C.3    20  ASN20       0.1653
     17  C         20.6580   17.5490   75.4600 C.2    20  ASN20       0.2266
     18  O         20.8340   18.2430   74.4640 O.2    20  ASN20      -0.2867
     19  CB        20.3590   15.0710   75.5880 C.3    20  ASN20       0.1155
     20  CG        20.9440   13.7770   75.0330 C.2    20  ASN20       0.2627
     21  OD1       22.1460   13.6900   74.7540 O.2    20  ASN20      -0.2716
     22  ND2       20.0880   12.7730   74.8440 N.am   20  ASN20      -0.0877
     23  N         27.5230   11.5690   72.9540 N.3    37  THR37      -0.1203
     24  CA        26.7460   11.2320   74.1480 C.3    37  THR37       0.1994
     25  C         25.9930    9.9220   73.9090 C.2    37  THR37       0.2618
     26  O         25.5770    9.2340   74.8460 O.2    37  THR37      -0.2717
     27  CB        25.7100   12.3320   74.4600 C.3    37  THR37       0.1784
     28  OG1       24.7980   12.4590   73.3590 O.3    37  THR37      -0.2211
     29  CG2       26.4000   13.6680   74.6910 C.3    37  THR37       0.0376
     30  N         25.7940    9.6240   72.6330 N.am   38  ALA38      -0.1965
     31  CA        25.1000    8.4320   72.1520 C.3    38  ALA38       0.1728
     32  C         24.9640    7.0470   72.7910 C.2    38  ALA38       0.2617
     33  O         25.9540    6.3720   73.0870 O.2    38  ALA38      -0.2715
     34  CB        25.4640    8.2410   70.6720 C.3    38  ALA38       0.0334
     35  N         23.7200    6.6310   72.9920 N.am   39  GLY39      -0.1940
     36  CA        23.4590    5.3110   73.5320 C.3    39  GLY39       0.2014
     37  C         22.9620    4.4560   72.3790 C.2    39  GLY39       0.2638
     38  O         23.0890    3.2360   72.3870 O.2    39  GLY39      -0.2714
     39  N         22.3860    5.1360   71.3860 N.am   40  GLU40      -0.1977
     40  CA        21.8380    4.5270   70.1780 C.3    40  GLU40       0.1602
     41  C         22.6820    4.4370   68.9090 C.2    40  GLU40       0.2287
     42  O         23.4670    5.3370   68.5870 O.2    40  GLU40      -0.2864
     43  CB        20.4790    5.1690   69.8440 C.3    40  GLU40       0.0415
     44  CG        20.4160    6.6860   70.0130 C.3    40  GLU40       0.1163
     45  CD        19.0020    7.1870   70.2620 C.2    40  GLU40       0.3649
     46  OE1       18.0560    6.4280   69.9730 O.co2  40  GLU40      -0.2457
     47  OE2       18.8320    8.3270   70.7620 O.co2  40  GLU40      -0.2457
     48  N         26.8300    1.4320   84.9070 N.3   125  TRP125     -0.1241
     49  CA        25.8040    2.1670   84.1950 C.3   125  TRP125      0.1605
     50  C         24.8790    2.9560   85.1010 C.2   125  TRP125      0.2264
     51  O         24.1960    2.4020   85.9610 O.2   125  TRP125     -0.2867
     52  CB        24.9690    1.2360   83.3330 C.3   125  TRP125      0.0550
     53  CG        23.8670    1.9580   82.6120 C.ar  125  TRP125      0.0003
     54  CD1       23.9650    3.1410   81.9250 C.ar  125  TRP125      0.0946
     55  CD2       22.4960    1.5640   82.5330 C.ar  125  TRP125      0.0152
     56  NE1       22.7400    3.5040   81.4350 N.ar  125  TRP125     -0.2442
     57  CE2       21.8170    2.5570   81.7950 C.ar  125  TRP125      0.0810
     58  CE3       21.7700    0.4640   83.0150 C.ar  125  TRP125      0.0012
     59  CZ2       20.4470    2.4870   81.5310 C.ar  125  TRP125      0.0191
     60  CZ3       20.4040    0.3940   82.7490 C.ar  125  TRP125      0.0001
     61  CH2       19.7600    1.4000   82.0170 C.ar  125  TRP125      0.0015
     62  N         28.9440   -1.5950   80.6930 N.3   175  ASN175     -0.1240
     63  CA        28.4440   -0.2950   80.2670 C.3   175  ASN175      0.1653
     64  C         29.3600    0.8610   80.0500 C.2   175  ASN175      0.2266
     65  O         29.6010    1.1350   78.8520 O.2   175  ASN175     -0.2867
     66  CB        27.1470    0.1960   80.9210 C.3   175  ASN175      0.1155
     67  CG        26.4120    1.2590   80.0310 C.2   175  ASN175      0.2627
     68  OD1       27.0410    2.1110   79.4000 O.2   175  ASN175     -0.2716
     69  ND2       25.0930    1.1930   79.9880 N.am  175  ASN175     -0.0877
     70  N         24.1930   -6.1230   75.1400 N.3   206  TYR206     -0.1241
     71  CA        25.2780   -5.7820   74.2140 C.3   206  TYR206      0.1605
     72  C         26.0060   -7.0070   73.6740 C.2   206  TYR206      0.2264
     73  O         27.0440   -6.8710   73.0230 O.2   206  TYR206     -0.2867
     74  CB        26.3130   -4.8820   74.9040 C.3   206  TYR206      0.0534
     75  CG        25.8430   -3.4780   75.1430 C.ar  206  TYR206     -0.0201
     76  CD1       26.1180   -2.4720   74.2270 C.ar  206  TYR206     -0.0009
     77  CD2       25.0880   -3.1590   76.2690 C.ar  206  TYR206     -0.0009
     78  CE1       25.6490   -1.1810   74.4210 C.ar  206  TYR206      0.0417
     79  CE2       24.6110   -1.8740   76.4730 C.ar  206  TYR206      0.0417
     80  CZ        24.8920   -0.8920   75.5460 C.ar  206  TYR206      0.1957
     81  OH        24.3950    0.3730   75.7330 O.3   206  TYR206     -0.2866
     82  N         19.7070   -2.3480   71.2060 N.3   234  LYS234     -0.1245
     83  CA        21.0810   -2.2510   70.7130 C.3   234  LYS234      0.1561
     84  C         21.5440   -3.0980   69.5400 C.2   234  LYS234      0.2260
     85  O         22.2800   -2.6120   68.6880 O.2   234  LYS234     -0.2867
     86  CB        22.0660   -2.4260   71.8640 C.3   234  LYS234      0.0271
     87  CG        21.6850   -1.6440   73.1010 C.3   234  LYS234      0.0035
     88  CD        22.1490   -0.2050   73.0620 C.3   234  LYS234      0.0206
     89  CE        21.5780    0.6010   74.2180 C.3   234  LYS234      0.1093
     90  NZ        20.1830    1.0680   73.9960 N.3   234  LYS234     -0.1314
     91  N         16.0430    0.9460   69.4690 N.3   239  THR239     -0.1218
     92  CA        15.8370    1.7000   70.7010 C.3   239  THR239      0.1862
     93  C         14.4500    2.3080   70.8470 C.2   239  THR239      0.2287
     94  O         13.6940    1.9340   71.7430 O.2   239  THR239     -0.2866
     95  CB        16.8920    2.8180   70.8920 C.3   239  THR239      0.1770
     96  OG1       16.5550    3.9560   70.0930 O.3   239  THR239     -0.2211
     97  CG2       18.2570    2.3300   70.5010 C.3   239  THR239      0.0375
     98  N         10.9800    0.4540   71.8850 N.3   242  ARG242     -0.1245
     99  CA        10.6530    0.0780   73.2610 C.3   242  ARG242      0.1563
    100  C         10.2990   -1.3830   73.4740 C.2   242  ARG242      0.2260
    101  O          9.1250   -1.7160   73.6660 O.2   242  ARG242     -0.2867
    102  CB         9.5060    0.9200   73.8560 C.3   242  ARG242      0.0307
    103  CG         9.7830    2.3860   74.1210 C.3   242  ARG242      0.0489
    104  CD        11.2350    2.6780   74.4380 C.3   242  ARG242      0.2205
    105  NE        11.7550    2.0210   75.6300 N.pl3 242  ARG242     -0.0865
    106  CZ        13.0370    1.7030   75.7800 C.cat 242  ARG242      0.5346
    107  NH1       13.8930    1.9750   74.8040 N.pl3 242  ARG242      0.1354
    108  NH2       13.4740    1.1630   76.9110 N.pl3 242  ARG242      0.1354
    109  N         31.2630    2.1300   73.8030 N.3   322  TYR322     -0.1241
    110  CA        31.6670    3.2110   74.6960 C.3   322  TYR322      0.1605
    111  C         33.1710    3.0830   74.9300 C.2   322  TYR322      0.2264
    112  O         33.7700    2.0410   74.6450 O.2   322  TYR322     -0.2867
    113  CB        30.9250    3.0970   76.0270 C.3   322  TYR322      0.0534
    114  CG        29.4280    2.9770   75.8610 C.ar  322  TYR322     -0.0201
    115  CD1       28.7610    1.7850   76.1620 C.ar  322  TYR322     -0.0009
    116  CD2       28.6790    4.0450   75.3730 C.ar  322  TYR322     -0.0009
    117  CE1       27.3950    1.6640   75.9800 C.ar  322  TYR322      0.0417
    118  CE2       27.3160    3.9340   75.1870 C.ar  322  TYR322      0.0417
    119  CZ        26.6820    2.7440   75.4900 C.ar  322  TYR322      0.1957
    120  OH        25.3300    2.6430   75.2860 O.3   322  TYR322     -0.2866
    121  N         28.8610    7.2900   86.9990 N.3   354  PHE354     -0.1241
    122  CA        29.2170    5.9010   86.7360 C.3   354  PHE354      0.1605
    123  C         30.2680    5.4890   87.7520 C.2   354  PHE354      0.2264
    124  O         30.7190    4.3450   87.7590 O.2   354  PHE354     -0.2867
    125  CB        29.8370    5.7490   85.3400 C.3   354  PHE354      0.0534
    126  CG        28.9660    6.2280   84.2130 C.ar  354  PHE354     -0.0203
    127  CD1       28.9530    7.5640   83.8510 C.ar  354  PHE354     -0.0042
    128  CD2       28.2200    5.3310   83.4680 C.ar  354  PHE354     -0.0042
    129  CE1       28.2200    7.9970   82.7660 C.ar  354  PHE354     -0.0003
    130  CE2       27.4860    5.7570   82.3820 C.ar  354  PHE354     -0.0003
    131  CZ        27.4870    7.0910   82.0290 C.ar  354  PHE354     -0.0000
    132  N         32.9230    9.5870   79.1470 N.3   361  ARG361     -0.1245
    133  CA        32.4310    8.6510   78.1290 C.3   361  ARG361      0.1563
    134  C         32.1250    9.0450   76.7010 C.2   361  ARG361      0.2260
    135  O         31.0690    9.6030   76.4080 O.2   361  ARG361     -0.2867
    136  CB        31.2300    7.8540   78.6600 C.3   361  ARG361      0.0307
    137  CG        30.8200    6.6810   77.7800 C.3   361  ARG361      0.0489
    138  CD        29.4840    6.1130   78.1960 C.3   361  ARG361      0.2205
    139  NE        28.3650    6.9150   77.7170 N.pl3 361  ARG361     -0.0865
    140  CZ        27.1290    6.4690   77.7300 C.cat 361  ARG361      0.5346
    141  NH1       26.9270    5.2700   78.2020 N.pl3 361  ARG361      0.1354
    142  NH2       26.1390    7.1790   77.2370 N.pl3 361  ARG361      0.1354
@<TRIPOS>BOND
     1    42    41    2
     2    85    84    2
     3    41    40    1
     4    91    92    1
     5    84    83    1
     6    43    44    1
     7    43    40    1
     8    46    45   ar
     9    44    45    1
    10    96    95    1
    11    40    39    1
    12    45    47   ar
    13    97    95    1
    14    34    31    1
    15    92    93    1
    16    92    95    1
    17    83    82    1
    18    83    86    1
    19    93    94    2
    20    39    37   am
    21    86    87    1
    22    98    99    1
    23    31    30    1
    24    31    32    1
    25    37    38    2
    26    37    36    1
    27    30    25   am
    28    32    35   am
    29    32    33    2
    30    23    24    1
    31    35    36    1
    32    73    72    2
    33    88    87    1
    34    88    89    1
    35    99   100    1
    36    99   102    1
    37    28    27    1
    38   100   101    2
    39    72    71    1
    40   109   110    1
    41   102   103    1
    42    25    24    1
    43    25    26    2
    44    90    89    1
    45   103   104    1
    46    24    27    1
    47    71    74    1
    48    71    70    1
    49    76    78   ar
    50    76    75   ar
    51    78    80   ar
    52   104   105    1
    53    27    29    1
    54    18    17    2
    55   112   111    2
    56   110   111    1
    57   110   113    1
    58    21    20    2
    59   107   106    1
    60    22    20   am
    61    74    75    1
    62    20    19    1
    63    75    77   ar
    64   118   116   ar
    65   118   119   ar
    66   120   119    1
    67   116   114   ar
    68    17    16    1
    69   119   117   ar
    70    80    81    1
    71    80    79   ar
    72    19    16    1
    73    16    15    1
    74   105   106    2
    75   106   108    1
    76   114   113    1
    77   114   115   ar
    78   117   115   ar
    79    77    79   ar
    80   135   134    2
    81   134   133    1
    82   142   140    1
    83     7     5    1
    84   139   140    2
    85   139   138    1
    86   140   141    1
    87   137   138    1
    88   137   136    1
    89   133   136    1
    90   133   132    1
    91     4     3    2
    92    65    64    2
    93    11    10    2
    94     5     2    1
    95     5     6    1
    96     3     2    1
    97     3     8   am
    98    68    67    2
    99     9    10    1
   100     9     8    1
   101     9    12    1
   102     2     1    1
   103    14    12    1
   104    69    67   am
   105    67    66    1
   106    64    63    1
   107    63    62    1
   108    63    66    1
   109    12    13    1
   110    56    57   ar
   111    56    54   ar
   112    59    57   ar
   113    59    61   ar
   114    57    55   ar
   115    54    53   ar
   116    61    60   ar
   117   131   130   ar
   118   131   129   ar
   119   130   128   ar
   120    55    53   ar
   121    55    58   ar
   122    53    52    1
   123    60    58   ar
   124   129   127   ar
   125    52    49    1
   126   128   126   ar
   127   127   126   ar
   128    49    48    1
   129    49    50    1
   130   126   125    1
   131    50    51    2
   132   125   122    1
   133   122   121    1
   134   122   123    1
   135   123   124    2
