@<TRIPOS>MOLECULE
tmp/1gc4A00.pdb
 101 96 0 0 0
SMALL
GASTEIGER

@<TRIPOS>ATOM
      1  N         10.7580    9.9490   35.5730 N.3    14  ASP14      -0.1239
      2  CA        11.6720    9.1140   34.8060 C.3    14  ASP14       0.1674
      3  C         12.8230    9.9890   34.3750 C.2    14  ASP14       0.2266
      4  O         12.6350   11.1170   33.9180 O.2    14  ASP14      -0.2867
      5  CB        11.0110    8.4730   33.6010 C.3    14  ASP14       0.1410
      6  CG        11.0570    6.9800   33.6700 C.2    14  ASP14       0.3668
      7  OD1       10.5490    6.4330   34.6610 O.co2  14  ASP14      -0.2456
      8  OD2       11.6180    6.3470   32.7620 O.co2  14  ASP14      -0.2456
      9  N         14.9310    9.0330   32.1410 N.3    16  VAL16      -0.1245
     10  CA        14.9510    8.8990   30.6870 C.3    16  VAL16       0.1561
     11  C         13.9160    9.8090   30.0180 C.2    16  VAL16       0.2260
     12  O         14.2630   10.5870   29.1260 O.2    16  VAL16      -0.2867
     13  CB        14.8380    7.4070   30.2130 C.3    16  VAL16       0.0252
     14  CG1       14.3610    6.5190   31.3360 C.3    16  VAL16       0.0019
     15  CG2       13.9270    7.2810   29.0030 C.3    16  VAL16       0.0019
     16  N         17.8550    7.2990   24.9640 N.3    38  ALA38      -0.1231
     17  CA        16.9410    6.1600   25.0010 C.3    38  ALA38       0.1694
     18  C         17.3300    4.7810   24.4730 C.2    38  ALA38       0.2592
     19  O         18.0450    4.6500   23.4720 O.2    38  ALA38      -0.2718
     20  CB        15.6040    6.5650   24.4260 C.3    38  ALA38       0.0304
     21  N         16.8150    3.7550   25.1370 N.am   39  GLY39      -0.1957
     22  CA        17.1260    2.4020   24.7500 C.3    39  GLY39       0.1869
     23  C         16.2730    1.8480   23.6350 C.2    39  GLY39       0.2309
     24  O         15.5600    0.8630   23.8290 O.2    39  GLY39      -0.2863
     25  N         17.2590   -1.0200   36.2470 N.3   125  TRP125     -0.1241
     26  CA        16.5550   -0.1720   35.3080 C.3   125  TRP125      0.1605
     27  C         15.6010    0.7080   36.1180 C.2   125  TRP125      0.2264
     28  O         14.8800    0.2330   36.9990 O.2   125  TRP125     -0.2867
     29  CB        15.8170   -1.0390   34.2910 C.3   125  TRP125      0.0550
     30  CG        14.7160   -0.3500   33.5720 C.ar  125  TRP125      0.0003
     31  CD1       14.7470    0.8890   33.0010 C.ar  125  TRP125      0.0946
     32  CD2       13.3900   -0.8420   33.3950 C.ar  125  TRP125      0.0152
     33  NE1       13.5130    1.2040   32.4890 N.ar  125  TRP125     -0.2442
     34  CE2       12.6600    0.1550   32.7190 C.ar  125  TRP125      0.0810
     35  CE3       12.7450   -2.0330   33.7470 C.ar  125  TRP125      0.0012
     36  CZ2       11.3250    0.0030   32.3920 C.ar  125  TRP125      0.0191
     37  CZ3       11.4270   -2.1860   33.4230 C.ar  125  TRP125      0.0001
     38  CH2       10.7250   -1.1700   32.7500 C.ar  125  TRP125      0.0015
     39  N         20.2470   -3.9920   31.9560 N.3   175  ASN175     -0.1240
     40  CA        20.1360   -2.5670   31.6470 C.3   175  ASN175      0.1653
     41  C         20.3760   -2.1250   33.0930 C.2   175  ASN175      0.2266
     42  O         19.6880   -2.5920   33.9990 O.2   175  ASN175     -0.2867
     43  CB        18.7260   -2.2150   31.2230 C.3   175  ASN175      0.1155
     44  CG        18.4990   -0.7200   31.1140 C.2   175  ASN175      0.2627
     45  OD1       19.3120    0.1010   31.5310 O.2   175  ASN175     -0.2716
     46  ND2       17.3790   -0.3640   30.5450 N.am  175  ASN175     -0.0877
     47  N         16.2670   -8.7420   26.5570 N.3   206  TYR206     -0.1241
     48  CA        17.4060   -8.4820   25.6800 C.3   206  TYR206      0.1605
     49  C         18.0640   -9.8190   25.3520 C.2   206  TYR206      0.2264
     50  O         19.1840   -9.8560   24.8470 O.2   206  TYR206     -0.2867
     51  CB        18.4340   -7.5800   26.3770 C.3   206  TYR206      0.0534
     52  CG        17.9460   -6.2030   26.7590 C.ar  206  TYR206     -0.0201
     53  CD1       18.0140   -5.1570   25.8600 C.ar  206  TYR206     -0.0009
     54  CD2       17.4160   -5.9490   28.0180 C.ar  206  TYR206     -0.0009
     55  CE1       17.5670   -3.8950   26.1980 C.ar  206  TYR206      0.0417
     56  CE2       16.9680   -4.6930   28.3610 C.ar  206  TYR206      0.0417
     57  CZ        17.0460   -3.6750   27.4440 C.ar  206  TYR206      0.1957
     58  OH        16.5910   -2.4280   27.7540 O.3   206  TYR206     -0.2866
     59  N         12.5700   -5.1210   21.4740 N.3   234  LYS234     -0.1245
     60  CA        14.0010   -4.9300   21.2230 C.3   234  LYS234      0.1561
     61  C         14.4950   -5.7790   20.0620 C.2   234  LYS234      0.2260
     62  O         15.2360   -5.3020   19.2020 O.2   234  LYS234     -0.2867
     63  CB        14.8220   -5.2920   22.4710 C.3   234  LYS234      0.0271
     64  CG        14.3870   -4.6040   23.7580 C.3   234  LYS234      0.0035
     65  CD        14.6310   -3.1110   23.7190 C.3   234  LYS234      0.0206
     66  CE        13.9780   -2.4320   24.8890 C.3   234  LYS234      0.1093
     67  NZ        14.1860   -0.9880   24.7850 N.3   234  LYS234     -0.1314
     68  N         23.6720   -0.7480   26.1420 N.3   322  TYR322     -0.1241
     69  CA        24.0510    0.3510   27.0150 C.3   322  TYR322      0.1605
     70  C         25.4530    0.0930   27.5330 C.2   322  TYR322      0.2264
     71  O         25.8970   -1.0540   27.6620 O.2   322  TYR322     -0.2867
     72  CB        23.1010    0.4680   28.2070 C.3   322  TYR322      0.0534
     73  CG        21.6450    0.3740   27.8360 C.ar  322  TYR322     -0.0201
     74  CD1       20.9650   -0.8360   27.9400 C.ar  322  TYR322     -0.0009
     75  CD2       20.9590    1.4780   27.3360 C.ar  322  TYR322     -0.0009
     76  CE1       19.6480   -0.9540   27.5510 C.ar  322  TYR322      0.0417
     77  CE2       19.6320    1.3700   26.9390 C.ar  322  TYR322      0.0417
     78  CZ        18.9900    0.1420   27.0500 C.ar  322  TYR322      0.1957
     79  OH        17.6940   -0.0090   26.6360 O.3   322  TYR322     -0.2866
     80  N         19.4620    4.9280   38.4280 N.3   354  PHE354     -0.1241
     81  CA        19.6840    3.5040   38.1900 C.3   354  PHE354      0.1605
     82  C         20.4940    2.9550   39.3500 C.2   354  PHE354      0.2264
     83  O         20.7880    1.7660   39.3780 O.2   354  PHE354     -0.2867
     84  CB        20.4900    3.2770   36.9180 C.3   354  PHE354      0.0534
     85  CG        19.8510    3.8040   35.6900 C.ar  354  PHE354     -0.0203
     86  CD1       19.8270    5.1670   35.4340 C.ar  354  PHE354     -0.0042
     87  CD2       19.3120    2.9380   34.7660 C.ar  354  PHE354     -0.0042
     88  CE1       19.2730    5.6620   34.2630 C.ar  354  PHE354     -0.0003
     89  CE2       18.7570    3.4120   33.5920 C.ar  354  PHE354     -0.0003
     90  CZ        18.7350    4.7820   33.3350 C.ar  354  PHE354     -0.0000
     91  N         24.7610    6.8450   31.7630 N.3   361  ARG361     -0.1245
     92  CA        24.3760    5.7710   30.8570 C.3   361  ARG361      0.1563
     93  C         24.1890    6.2200   29.4230 C.2   361  ARG361      0.2260
     94  O         23.3290    7.0480   29.1220 O.2   361  ARG361     -0.2867
     95  CB        23.1030    5.0540   31.3120 C.3   361  ARG361      0.0307
     96  CG        22.8200    3.8330   30.4610 C.3   361  ARG361      0.0489
     97  CD        21.3290    3.3640   30.5230 C.3   361  ARG361      0.2205
     98  NE        20.5130    4.0410   29.5080 N.pl3 361  ARG361     -0.0865
     99  CZ        19.2360    3.7510   29.3380 C.cat 361  ARG361      0.5346
    100  NH1       18.7540    2.7830   30.1460 N.pl3 361  ARG361      0.1354
    101  NH2       18.4480    4.4390   28.4650 N.pl3 361  ARG361      0.1354
@<TRIPOS>BOND
     1    62    61    2
     2    61    60    1
     3    60    59    1
     4    60    63    1
     5    63    64    1
     6    19    18    2
     7    23    24    2
     8    23    22    1
     9    65    64    1
    10    65    66    1
    11    20    17    1
    12    18    17    1
    13    18    21   am
    14    22    21    1
    15    67    66    1
    16    50    49    2
    17    16    17    1
    18    49    48    1
    19    48    51    1
    20    48    47    1
    21    53    55   ar
    22    53    52   ar
    23    68    69    1
    24    55    57   ar
    25    51    52    1
    26    79    78    1
    27    52    54   ar
    28    77    78   ar
    29    77    75   ar
    30    69    70    1
    31    69    72    1
    32    78    76   ar
    33    75    73   ar
    34    57    58    1
    35    57    56   ar
    36    70    71    2
    37    76    74   ar
    38    73    74   ar
    39    73    72    1
    40    54    56   ar
    41   101    99    1
    42    15    13    1
    43    94    93    2
    44    12    11    2
    45    99    98    2
    46    99   100    1
    47    93    92    1
    48    98    97    1
    49    11    10    1
    50    13    10    1
    51    13    14    1
    52    96    97    1
    53    96    95    1
    54    46    44   am
    55    10     9    1
    56    92    95    1
    57    92    91    1
    58    44    43    1
    59    44    45    2
    60    43    40    1
    61    40    39    1
    62    40    41    1
    63    36    34   ar
    64    36    38   ar
    65    33    34   ar
    66    33    31   ar
    67    34    32   ar
    68    38    37   ar
    69     8     6   ar
    70    31    30   ar
    71    41    42    2
    72    90    89   ar
    73    90    88   ar
    74    32    30   ar
    75    32    35   ar
    76    37    35   ar
    77    30    29    1
    78    89    87   ar
    79     5     6    1
    80     5     2    1
    81     6     7   ar
    82     4     3    2
    83    88    86   ar
    84    29    26    1
    85     3     2    1
    86    87    85   ar
    87     2     1    1
    88    26    27    1
    89    26    25    1
    90    86    85   ar
    91    85    84    1
    92    27    28    2
    93    84    81    1
    94    81    80    1
    95    81    82    1
    96    82    83    2
