@<TRIPOS>MOLECULE
tmp/1gc5A00.pdb
 168 161 0 0 0
SMALL
GASTEIGER

@<TRIPOS>ATOM
      1  N         10.8100   54.1020   32.9900 N.3   205  ARG205     -0.1245
      2  CA        11.5020   53.3000   34.0040 C.3   205  ARG205      0.1563
      3  C         10.6010   52.7000   35.0910 C.2   205  ARG205      0.2260
      4  O          9.5600   53.2580   35.4360 O.2   205  ARG205     -0.2867
      5  CB        12.5480   54.1670   34.7030 C.3   205  ARG205      0.0307
      6  CG        11.9250   55.0910   35.7450 C.3   205  ARG205      0.0489
      7  CD        12.9010   56.1250   36.2520 C.3   205  ARG205      0.2205
      8  NE        12.4320   57.4960   36.0480 N.pl3 205  ARG205     -0.0865
      9  CZ        11.6090   58.1490   36.8680 C.cat 205  ARG205      0.5346
     10  NH1       11.1450   57.5680   37.9690 N.pl3 205  ARG205      0.1354
     11  NH2       11.2600   59.4000   36.5940 N.pl3 205  ARG205      0.1354
     12  N          3.4100   70.0320   40.2330 N.3   305  ASN305     -0.1240
     13  CA         3.1610   69.9060   38.8100 C.3   305  ASN305      0.1653
     14  C          1.6490   69.8610   38.6010 C.2   305  ASN305      0.2266
     15  O          0.8750   70.1180   39.5340 O.2   305  ASN305     -0.2867
     16  CB         3.8170   68.6340   38.2680 C.3   305  ASN305      0.1155
     17  CG         3.2110   67.3750   38.8410 C.2   305  ASN305      0.2627
     18  OD1        2.1300   67.3950   39.4300 O.2   305  ASN305     -0.2716
     19  ND2        3.9080   66.2650   38.6720 N.am  305  ASN305     -0.0877
     20  N         -0.3620   67.0730   40.6340 N.3   308  GLU308     -0.1245
     21  CA        -0.3700   67.4470   42.0370 C.3   308  GLU308      0.1567
     22  C         -1.3060   68.6210   42.3310 C.2   308  GLU308      0.2260
     23  O         -2.1060   68.5720   43.2650 O.2   308  GLU308     -0.2867
     24  CB         1.0550   67.7630   42.4690 C.3   308  GLU308      0.0388
     25  CG         1.9540   66.5510   42.3830 C.3   308  GLU308      0.1160
     26  CD         3.4150   66.8920   42.1810 C.2   308  GLU308      0.3649
     27  OE1        3.7760   68.0880   42.1890 O.co2 308  GLU308     -0.2457
     28  OE2        4.2070   65.9450   42.0160 O.co2 308  GLU308     -0.2457
     29  N          5.3850   73.8330   37.7980 N.3   352  HIS352     -0.1226
     30  CA         6.1880   73.4520   36.6390 C.3   352  HIS352      0.1752
     31  C          5.4840   72.3690   35.8530 C.2   352  HIS352      0.2597
     32  O          4.8360   71.4930   36.4160 O.2   352  HIS352     -0.2718
     33  CB         7.5820   72.9580   37.0510 C.3   352  HIS352      0.0759
     34  CG         7.5730   71.6620   37.8110 C.ar  352  HIS352      0.0818
     35  ND1        7.6780   71.6060   39.1880 N.ar  352  HIS352     -0.2268
     36  CD2        7.4620   70.3810   37.3910 C.ar  352  HIS352      0.1154
     37  CE1        7.6280   70.3430   39.5780 C.ar  352  HIS352      0.1986
     38  NE2        7.4980   69.5810   38.5050 N.ar  352  HIS352     -0.2212
     39  N          5.5890   72.4480   34.5390 N.am  353  THR353     -0.1939
     40  CA         4.9870   71.4440   33.6870 C.3   353  THR353      0.2028
     41  C          5.8580   71.3950   32.4450 C.2   353  THR353      0.2642
     42  O          6.8980   72.0510   32.3990 O.2   353  THR353     -0.2714
     43  CB         3.5040   71.7850   33.3410 C.3   353  THR353      0.1808
     44  OG1        2.9050   70.6540   32.7060 O.3   353  THR353     -0.2208
     45  CG2        3.4000   72.9800   32.4130 C.3   353  THR353      0.0379
     46  N          5.4620   70.6160   31.4480 N.am  354  TYR354     -0.1973
     47  CA         6.2570   70.5210   30.2330 C.3   354  TYR354      0.1639
     48  C          5.9730   71.7310   29.3400 C.2   354  TYR354      0.2290
     49  O          4.8390   71.9630   28.9270 O.2   354  TYR354     -0.2864
     50  CB         5.9390   69.1920   29.5410 C.3   354  TYR354      0.0560
     51  CG         6.0990   69.1510   28.0370 C.ar  354  TYR354     -0.0198
     52  CD1        7.2930   68.7200   27.4570 C.ar  354  TYR354     -0.0009
     53  CD2        5.0270   69.4570   27.1910 C.ar  354  TYR354     -0.0009
     54  CE1        7.4150   68.5850   26.0710 C.ar  354  TYR354      0.0417
     55  CE2        5.1380   69.3250   25.8060 C.ar  354  TYR354      0.0417
     56  CZ         6.3320   68.8840   25.2520 C.ar  354  TYR354      0.1957
     57  OH         6.4320   68.7080   23.8880 O.3   354  TYR354     -0.2866
     58  N          6.9270   77.2380   33.1730 N.3   357  TYR357     -0.1241
     59  CA         6.8140   77.2830   34.6250 C.3   357  TYR357      0.1605
     60  C          6.0210   78.5400   34.9500 C.2   357  TYR357      0.2264
     61  O          6.0290   79.5140   34.1930 O.2   357  TYR357     -0.2867
     62  CB         8.1700   77.4460   35.3430 C.3   357  TYR357      0.0534
     63  CG         9.2500   76.4290   35.0690 C.ar  357  TYR357     -0.0201
     64  CD1       10.5890   76.7920   35.1530 C.ar  357  TYR357     -0.0009
     65  CD2        8.9470   75.1270   34.7080 C.ar  357  TYR357     -0.0009
     66  CE1       11.6010   75.8950   34.8770 C.ar  357  TYR357      0.0417
     67  CE2        9.9590   74.2150   34.4280 C.ar  357  TYR357      0.0417
     68  CZ        11.2860   74.6120   34.5140 C.ar  357  TYR357      0.1957
     69  OH        12.2970   73.7280   34.2120 O.3   357  TYR357     -0.2866
     70  N         17.5280   72.3540   34.4590 N.3   379  ALA379     -0.1231
     71  CA        16.7720   71.1510   34.1210 C.3   379  ALA379      0.1694
     72  C         17.1890   70.6280   32.7610 C.2   379  ALA379      0.2591
     73  O         17.2600   69.4250   32.5580 O.2   379  ALA379     -0.2718
     74  CB        15.2810   71.4380   34.1180 C.3   379  ALA379      0.0304
     75  N         17.4590   71.5360   31.8280 N.am  380  ALA380     -0.1980
     76  CA        17.8760   71.1510   30.4800 C.3   380  ALA380      0.1597
     77  C         19.2690   70.5350   30.5210 C.2   380  ALA380      0.2287
     78  O         19.5110   69.4880   29.9220 O.2   380  ALA380     -0.2864
     79  CB        17.8680   72.3620   29.5650 C.3   380  ALA380      0.0319
     80  N         18.9900   67.0540   32.0080 N.3   383  ALA383     -0.1245
     81  CA        18.4210   66.1060   31.0520 C.3   383  ALA383      0.1562
     82  C         19.4200   65.8280   29.9170 C.2   383  ALA383      0.2260
     83  O         19.4790   64.7250   29.3870 O.2   383  ALA383     -0.2867
     84  CB        17.1060   66.6570   30.4890 C.3   383  ALA383      0.0290
     85  N         10.0500   77.3420   28.8120 N.3   437  THR437     -0.1203
     86  CA        11.2080   76.4920   29.0810 C.3   437  THR437      0.1994
     87  C         11.9350   75.8360   27.9110 C.2   437  THR437      0.2618
     88  O         11.5800   76.0180   26.7470 O.2   437  THR437     -0.2717
     89  CB        10.8510   75.3910   30.0960 C.3   437  THR437      0.1784
     90  OG1        9.8360   74.5430   29.5510 O.3   437  THR437     -0.2211
     91  CG2       10.3520   76.0150   31.3930 C.3   437  THR437      0.0376
     92  N         12.9710   75.0720   28.2590 N.am  438  LYS438     -0.1965
     93  CA        13.8190   74.3720   27.3010 C.3   438  LYS438      0.1728
     94  C         13.7120   72.8480   27.3940 C.2   438  LYS438      0.2616
     95  O         14.3160   72.2090   28.2630 O.2   438  LYS438     -0.2715
     96  CB        15.2720   74.7990   27.5000 C.3   438  LYS438      0.0311
     97  CG        15.6010   76.1490   26.8840 C.3   438  LYS438      0.0038
     98  CD        16.9700   76.5960   27.3060 C.3   438  LYS438      0.0206
     99  CE        17.1600   78.0800   27.0290 C.3   438  LYS438      0.1093
    100  NZ        16.9980   78.4080   25.5890 N.3   438  LYS438     -0.1314
    101  N         12.9380   72.2790   26.4750 N.am  439  ILE439     -0.1963
    102  CA        12.7210   70.8440   26.4120 C.3   439  ILE439      0.1727
    103  C         13.8560   70.1690   25.6660 C.2   439  ILE439      0.2616
    104  O         14.2360   70.5900   24.5650 O.2   439  ILE439     -0.2715
    105  CB        11.4120   70.5040   25.6800 C.3   439  ILE439      0.0290
    106  CG1       10.2610   71.3300   26.2480 C.3   439  ILE439      0.0022
    107  CG2       11.1190   69.0260   25.8200 C.3   439  ILE439      0.0023
    108  CD1       10.0240   71.1080   27.7340 C.3   439  ILE439      0.0001
    109  N         14.4000   69.1200   26.2700 N.am  440  VAL440     -0.1977
    110  CA        15.4830   68.3720   25.6490 C.3   440  VAL440      0.1596
    111  C         14.9090   67.0840   25.0460 C.2   440  VAL440      0.2287
    112  O         14.3390   66.2440   25.7560 O.2   440  VAL440     -0.2864
    113  CB        16.5930   68.0500   26.6790 C.3   440  VAL440      0.0276
    114  CG1       17.5280   67.0000   26.1390 C.3   440  VAL440      0.0022
    115  CG2       17.3560   69.3070   27.0010 C.3   440  VAL440      0.0022
    116  N         16.3410   62.8400   26.3890 N.3   443  PRO443     -0.2116
    117  CA        17.2550   63.1750   27.4830 C.3   443  PRO443      0.1372
    118  C         18.0120   61.9670   28.0390 C.2   443  PRO443      0.2244
    119  O         17.6090   60.8220   27.8440 O.2   443  PRO443     -0.2868
    120  CB        16.3350   63.7890   28.5260 C.3   443  PRO443      0.0268
    121  CG        15.0530   63.0540   28.3350 C.3   443  PRO443      0.0207
    122  CD        14.9500   62.7310   26.8600 C.3   443  PRO443      0.0892
    123  N         16.9810   62.0860   33.4770 N.3   446  THR446     -0.1203
    124  CA        15.5410   62.2730   33.6600 C.3   446  THR446      0.1994
    125  C         15.0650   61.7100   35.0150 C.2   446  THR446      0.2618
    126  O         13.8630   61.6200   35.2810 O.2   446  THR446     -0.2717
    127  CB        14.7390   61.6300   32.4740 C.3   446  THR446      0.1784
    128  OG1       13.8010   62.5850   31.9570 O.3   446  THR446     -0.2211
    129  CG2       13.9940   60.3670   32.9170 C.3   446  THR446      0.0376
    130  N         16.0130   61.3620   35.8820 N.am  447  VAL447     -0.1965
    131  CA        15.6690   60.8130   37.1850 C.3   447  VAL447      0.1727
    132  C         15.3370   61.8720   38.2370 C.2   447  VAL447      0.2617
    133  O         14.3440   61.7410   38.9550 O.2   447  VAL447     -0.2715
    134  CB        16.7880   59.8900   37.7140 C.3   447  VAL447      0.0290
    135  CG1       16.7910   59.8710   39.2420 C.3   447  VAL447      0.0023
    136  CG2       16.5740   58.4810   37.1760 C.3   447  VAL447      0.0023
    137  N         16.1500   62.9150   38.3460 N.am  448  GLY448     -0.1940
    138  CA        15.8400   63.9370   39.3330 C.3   448  GLY448      0.2014
    139  C         15.6410   65.3230   38.7460 C.2   448  GLY448      0.2639
    140  O         16.1500   66.3050   39.2850 O.2   448  GLY448     -0.2714
    141  N         14.8910   65.4180   37.6520 N.am  449  ILE449     -0.1963
    142  CA        14.6770   66.7040   37.0020 C.3   449  ILE449      0.1727
    143  C         13.7670   67.6190   37.8200 C.2   449  ILE449      0.2617
    144  O         14.0980   68.7880   38.0450 O.2   449  ILE449     -0.2715
    145  CB        14.0990   66.5280   35.5620 C.3   449  ILE449      0.0290
    146  CG1       15.0660   65.7060   34.7050 C.3   449  ILE449      0.0022
    147  CG2       13.9170   67.8870   34.9010 C.3   449  ILE449      0.0023
    148  CD1       14.8210   65.8060   33.1960 C.3   449  ILE449      0.0001
    149  N         12.6350   67.0850   38.2680 N.am  450  GLY450     -0.1940
    150  CA        11.7050   67.8720   39.0590 C.3   450  GLY450      0.2014
    151  C         12.3300   68.4670   40.3100 C.2   450  GLY450      0.2638
    152  O         11.9860   69.5740   40.7200 O.2   450  GLY450     -0.2714
    153  N         13.2500   67.7360   40.9270 N.am  451  ASP451     -0.1971
    154  CA        13.9180   68.2140   42.1320 C.3   451  ASP451      0.1709
    155  C         14.8600   69.3400   41.7210 C.2   451  ASP451      0.2293
    156  O         15.0050   70.3440   42.4130 O.2   451  ASP451     -0.2864
    157  CB        14.7450   67.0900   42.7850 C.3   451  ASP451      0.1436
    158  CG        13.8970   65.9180   43.2670 C.2   451  ASP451      0.3671
    159  OD1       12.7480   66.1350   43.7300 O.co2 451  ASP451     -0.2456
    160  OD2       14.4000   64.7730   43.1870 O.co2 451  ASP451     -0.2456
    161  N         14.5500   71.3470   39.2220 N.3   453  ILE453     -0.1245
    162  CA        13.7360   72.5030   38.8670 C.3   453  ILE453      0.1561
    163  C         13.3270   73.3410   40.0640 C.2   453  ILE453      0.2260
    164  O         13.5320   74.5530   40.0880 O.2   453  ILE453     -0.2867
    165  CB        12.4560   72.0470   38.1410 C.3   453  ILE453      0.0252
    166  CG1       12.7820   71.6930   36.6880 C.3   453  ILE453      0.0019
    167  CG2       11.4010   73.1350   38.1920 C.3   453  ILE453      0.0019
    168  CD1       11.7330   70.8350   36.0200 C.3   453  ILE453      0.0001
@<TRIPOS>BOND
     1    57    56    1
     2   104   103    2
     3   111   110    1
     4   111   112    2
     5    56    55   ar
     6    56    54   ar
     7   100    99    1
     8   110   109    1
     9   110   113    1
    10   103   109   am
    11   103   102    1
    12   105   107    1
    13   105   106    1
    14   105   102    1
    15    55    53   ar
    16    54    52   ar
    17   114   113    1
    18   106   108    1
    19   116   122    1
    20   116   117    1
    21   102   101    1
    22   101    94   am
    23   113   115    1
    24    88    87    2
    25   122   121    1
    26    97    98    1
    27    97    96    1
    28    99    98    1
    29    53    51   ar
    30    93    94    1
    31    93    96    1
    32    93    92    1
    33    94    95    2
    34    52    51   ar
    35   117   118    1
    36   117   120    1
    37   119   118    2
    38    87    92   am
    39    87    86    1
    40    51    50    1
    41   121   120    1
    42    85    86    1
    43    49    48    2
    44    86    89    1
    45    48    47    1
    46    83    82    2
    47    50    47    1
    48    90    89    1
    49    79    76    1
    50    82    81    1
    51    78    77    2
    52    89    91    1
    53    47    46    1
    54    76    77    1
    55    76    75    1
    56    84    81    1
    57    81    80    1
    58    46    41   am
    59    75    72   am
    60   128   127    1
    61    42    41    2
    62    45    43    1
    63    41    40    1
    64   127   129    1
    65   127   124    1
    66    73    72    2
    67    44    43    1
    68    72    71    1
    69     1     2    1
    70    58    59    1
    71   148   146    1
    72    43    40    1
    73   123   124    1
    74   124   125    1
    75    40    39    1
    76     2     5    1
    77     2     3    1
    78    74    71    1
    79    71    70    1
    80    61    60    2
    81    69    68    1
    82    67    68   ar
    83    67    65   ar
    84    68    66   ar
    85    39    31   am
    86    59    60    1
    87    59    62    1
    88     5     6    1
    89   146   145    1
    90    65    63   ar
    91    66    64   ar
    92   147   145    1
    93   125   126    2
    94   125   130   am
    95    63    64   ar
    96    63    62    1
    97     3     4    2
    98   145   142    1
    99     6     7    1
   100    31    32    2
   101    31    30    1
   102   130   131    1
   103   168   166    1
   104     8     7    1
   105     8     9    2
   106    11     9    1
   107    30    33    1
   108    30    29    1
   109   166   165    1
   110     9    10    1
   111   142   141    1
   112   142   143    1
   113    33    34    1
   114   136   134    1
   115   131   134    1
   116   131   132    1
   117    36    34   ar
   118    36    38   ar
   119   141   139   am
   120   134   135    1
   121    34    35   ar
   122   143   144    2
   123   143   149   am
   124   165   167    1
   125   165   162    1
   126   132   137   am
   127   132   133    2
   128    16    13    1
   129    16    17    1
   130   149   150    1
   131   137   138    1
   132    38    37   ar
   133    14    13    1
   134    14    15    2
   135    19    17   am
   136   139   140    2
   137   139   138    1
   138    13    12    1
   139    17    18    2
   140   162   161    1
   141   162   163    1
   142   150   151    1
   143    35    37   ar
   144   163   164    2
   145   151   152    2
   146   151   153   am
   147    20    21    1
   148   153   154    1
   149   155   154    1
   150   155   156    2
   151    28    26   ar
   152    21    22    1
   153    21    24    1
   154   154   157    1
   155    26    27   ar
   156    26    25    1
   157    22    23    2
   158    25    24    1
   159   157   158    1
   160   160   158   ar
   161   158   159   ar
