@<TRIPOS>MOLECULE
tmp/1gcdA00.pdb
 94 93 0 0 0
SMALL
GASTEIGER

@<TRIPOS>ATOM
      1  N         23.2880   -3.6640   30.0950 N.3    36  PHE36      -0.1241
      2  CA        24.4490   -3.3640   30.9160 C.3    36  PHE36       0.1605
      3  C         24.5650   -1.8680   31.2130 C.2    36  PHE36       0.2264
      4  O         25.2990   -1.5430   32.1360 O.2    36  PHE36      -0.2867
      5  CB        25.7940   -3.8470   30.3470 C.3    36  PHE36       0.0534
      6  CG        26.1880   -3.2530   29.0210 C.ar   36  PHE36      -0.0203
      7  CD1       25.7900   -3.8770   27.8390 C.ar   36  PHE36      -0.0042
      8  CD2       26.9540   -2.0910   28.9410 C.ar   36  PHE36      -0.0042
      9  CE1       26.1150   -3.3900   26.5910 C.ar   36  PHE36      -0.0003
     10  CE2       27.3130   -1.5770   27.6910 C.ar   36  PHE36      -0.0003
     11  CZ        26.9010   -2.2050   26.5240 C.ar   36  PHE36      -0.0000
     12  N         32.7120    4.7740   30.6830 N.3    52  HIS52      -0.1241
     13  CA        32.9960    3.5400   31.4250 C.3    52  HIS52       0.1621
     14  C         32.1210    2.3720   30.9950 C.2    52  HIS52       0.2264
     15  O         32.5160    1.2200   31.2520 O.2    52  HIS52      -0.2867
     16  CB        33.0670    3.6760   32.9460 C.3    52  HIS52       0.0745
     17  CG        31.7730    3.5130   33.6620 C.ar   52  HIS52       0.0817
     18  ND1       30.9770    4.5610   34.0840 N.ar   52  HIS52      -0.2268
     19  CD2       31.0970    2.3900   34.0060 C.ar   52  HIS52       0.1154
     20  CE1       29.8880    4.1250   34.6350 C.ar   52  HIS52       0.1986
     21  NE2       29.9410    2.7940   34.5900 N.ar   52  HIS52      -0.2212
     22  N         21.5320    5.3280   42.8060 N.3   182  SER182     -0.1202
     23  CA        21.6730    4.8130   41.4050 C.3   182  SER182      0.2020
     24  C         22.4650    3.5050   41.6720 C.2   182  SER182      0.2619
     25  O         23.1490    3.4000   42.7570 O.2   182  SER182     -0.2717
     26  CB        22.3660    5.8440   40.5380 C.3   182  SER182      0.2103
     27  OG        21.4720    6.9000   40.1570 O.3   182  SER182     -0.2182
     28  N         22.3680    2.4620   40.8690 N.am  183  CYS183     -0.1955
     29  CA        23.1040    1.1890   41.1810 C.3   183  CYS183      0.1843
     30  C         23.5900    0.5230   39.9120 C.2   183  CYS183      0.2625
     31  O         23.3880    1.0600   38.8120 O.2   183  CYS183     -0.2714
     32  CB        22.2000    0.3210   42.0620 C.3   183  CYS183      0.0997
     33  SG        22.9950   -0.9620   43.0530 S.3   183  CYS183     -0.0797
     34  N         24.3150   -0.6110   40.0590 N.am  184  MET184     -0.1963
     35  CA        24.8640   -1.3070   38.8780 C.3   184  MET184      0.1736
     36  C         23.7940   -1.4990   37.8140 C.2   184  MET184      0.2617
     37  O         22.7760   -2.1360   38.0720 O.2   184  MET184     -0.2715
     38  CB        25.5940   -2.5750   39.3010 C.3   184  MET184      0.0427
     39  CG        26.7760   -2.2420   40.1920 C.3   184  MET184      0.0599
     40  SD        26.1510   -2.1810   41.9360 S.3   184  MET184     -0.1393
     41  CE        25.9770   -3.9260   42.2670 C.3   184  MET184      0.0692
     42  N         24.0750   -0.9780   36.6140 N.am  185  GLY185     -0.1955
     43  CA        23.1360   -1.0840   35.4700 C.3   185  GLY185      0.1869
     44  C         22.4980    0.2510   35.1090 C.2   185  GLY185      0.2309
     45  O         21.9130    0.3980   34.0160 O.2   185  GLY185     -0.2863
     46  N         24.3400    3.0170   35.1330 N.3   187  SER187     -0.1217
     47  CA        25.4430    3.7780   34.4910 C.3   187  SER187      0.1889
     48  C         25.1380    4.1020   33.0400 C.2   187  SER187      0.2288
     49  O         24.5470    3.2750   32.3550 O.2   187  SER187     -0.2866
     50  CB        26.7590    3.0370   34.6910 C.3   187  SER187      0.2089
     51  OG        27.1850    3.1370   36.0520 O.3   187  SER187     -0.2183
     52  N         24.8270    9.0610   34.8110 N.3   205  VAL205     -0.1231
     53  CA        25.1030    8.1150   35.9020 C.3   205  VAL205      0.1692
     54  C         26.5340    7.5650   35.6820 C.2   205  VAL205      0.2593
     55  O         26.7850    6.9620   34.6680 O.2   205  VAL205     -0.2718
     56  CB        24.0620    6.9910   35.9760 C.3   205  VAL205      0.0266
     57  CG1       24.4820    6.0720   37.1140 C.3   205  VAL205      0.0020
     58  CG2       22.6690    7.5820   36.0730 C.3   205  VAL205      0.0020
     59  N         27.3730    7.8090   36.7010 N.am  206  SER206     -0.1938
     60  CA        28.7860    7.4030   36.5740 C.3   206  SER206      0.2055
     61  C         29.2630    6.3980   37.5820 C.2   206  SER206      0.2643
     62  O         29.6500    5.3060   37.1480 O.2   206  SER206     -0.2714
     63  CB        29.6600    8.6920   36.6570 C.3   206  SER206      0.2130
     64  OG        30.9520    8.3990   36.2010 O.3   206  SER206     -0.2179
     65  N         29.2780    6.7340   38.8520 N.am  207  TRP207     -0.1959
     66  CA        29.7540    5.8620   39.9110 C.3   207  TRP207      0.1771
     67  C         29.2440    6.2670   41.2840 C.2   207  TRP207      0.2620
     68  O         28.7070    7.3800   41.4380 O.2   207  TRP207     -0.2715
     69  CB        31.2820    5.8420   39.9410 C.3   207  TRP207      0.0590
     70  CG        32.0350    7.0780   40.2520 C.ar  207  TRP207      0.0006
     71  CD1       32.4080    8.0500   39.3630 C.ar  207  TRP207      0.0946
     72  CD2       32.5250    7.5260   41.5260 C.ar  207  TRP207      0.0152
     73  NE1       33.0960    9.0590   39.9830 N.ar  207  TRP207     -0.2442
     74  CE2       33.1970    8.7450   41.3110 C.ar  207  TRP207      0.0810
     75  CE3       32.4500    7.0210   42.8260 C.ar  207  TRP207      0.0012
     76  CZ2       33.8010    9.4680   42.3380 C.ar  207  TRP207      0.0191
     77  CZ3       33.0350    7.7270   43.8300 C.ar  207  TRP207      0.0001
     78  CH2       33.7150    8.9440   43.6110 C.ar  207  TRP207      0.0015
     79  N         29.4680    5.3410   42.2310 N.am  208  GLY208     -0.1940
     80  CA        28.9820    5.6860   43.6120 C.3   208  GLY208      0.2014
     81  C         29.3330    4.6140   44.6270 C.2   208  GLY208      0.2639
     82  O         30.3460    3.9270   44.5100 O.2   208  GLY208     -0.2714
     83  N         28.4770    4.4990   45.6160 N.am  209  SER209     -0.1949
     84  CA        28.7330    3.4910   46.6850 C.3   209  SER209      0.1924
     85  C         28.8270    2.1040   46.0970 C.2   209  SER209      0.2314
     86  O         28.0280    1.6540   45.2900 O.2   209  SER209     -0.2863
     87  CB        27.6750    3.6340   47.7340 C.3   209  SER209      0.2116
     88  OG        27.4990    2.5750   48.6030 O.3   209  SER209     -0.2180
     89  N         25.7320    0.5980   46.7620 N.3   212  CYS212     -0.1235
     90  CA        24.5730    1.4670   46.4120 C.3   212  CYS212      0.1677
     91  C         23.9100    2.0050   47.6740 C.2   212  CYS212      0.2270
     92  O         22.6790    2.0450   47.8340 O.2   212  CYS212     -0.2867
     93  CB        23.6030    0.7200   45.5010 C.3   212  CYS212      0.0956
     94  SG        24.4490   -0.0470   44.0840 S.3   212  CYS212     -0.0801
@<TRIPOS>BOND
     1    11     9   ar
     2    11    10   ar
     3     9     7   ar
     4    10     8   ar
     5     7     6   ar
     6     8     6   ar
     7     6     5    1
     8     1     2    1
     9     5     2    1
    10    12    13    1
    11     2     3    1
    12    14    15    2
    13    14    13    1
    14     3     4    2
    15    13    16    1
    16    49    48    2
    17    16    17    1
    18    48    47    1
    19    17    19   ar
    20    17    18   ar
    21    19    21   ar
    22    45    44    2
    23    18    20   ar
    24    47    50    1
    25    47    46    1
    26    21    20   ar
    27    55    54    2
    28    50    51    1
    29    52    53    1
    30    44    43    1
    31    43    42    1
    32    54    53    1
    33    54    59   am
    34    53    56    1
    35    56    58    1
    36    56    57    1
    37    64    63    1
    38    60    63    1
    39    60    59    1
    40    60    61    1
    41    42    36   am
    42    62    61    2
    43    61    65   am
    44    36    37    2
    45    36    35    1
    46    31    30    2
    47    65    66    1
    48    35    38    1
    49    35    34    1
    50    38    39    1
    51    71    73   ar
    52    71    70   ar
    53    66    69    1
    54    66    67    1
    55    30    34   am
    56    30    29    1
    57    69    70    1
    58    73    74   ar
    59    27    26    1
    60    39    40    1
    61    70    72   ar
    62    26    23    1
    63    28    29    1
    64    28    24   am
    65    29    32    1
    66    67    68    2
    67    67    79   am
    68    74    72   ar
    69    74    76   ar
    70    23    24    1
    71    23    22    1
    72    72    75   ar
    73    24    25    2
    74    40    41    1
    75    32    33    1
    76    79    80    1
    77    76    78   ar
    78    75    77   ar
    79    33    94    1
    80    78    77   ar
    81    80    81    1
    82    94    93    1
    83    82    81    2
    84    81    83   am
    85    86    85    2
    86    93    90    1
    87    83    84    1
    88    85    84    1
    89    90    89    1
    90    90    91    1
    91    84    87    1
    92    91    92    2
    93    87    88    1
