@<TRIPOS>MOLECULE
tmp/1gctC01.pdb
 126 125 0 0 0
SMALL
GASTEIGER

@<TRIPOS>ATOM
      1  N         33.3700   11.4190   50.5380 N.3    22  TRP22      -0.1241
      2  CA        34.2420   10.8180   49.5580 C.3    22  TRP22       0.1605
      3  C         35.6530   11.3140   49.5240 C.2    22  TRP22       0.2264
      4  O         36.4650   10.7050   48.8610 O.2    22  TRP22      -0.2867
      5  CB        33.5980   10.8400   48.1290 C.3    22  TRP22       0.0550
      6  CG        32.3860    9.9510   48.0190 C.ar   22  TRP22       0.0003
      7  CD1       31.1060   10.3560   47.7990 C.ar   22  TRP22       0.0946
      8  CD2       32.3120    8.5450   48.1780 C.ar   22  TRP22       0.0152
      9  NE1       30.2510    9.2930   47.7970 N.ar   22  TRP22      -0.2442
     10  CE2       30.9640    8.1400   47.9960 C.ar   22  TRP22       0.0810
     11  CE3       33.2810    7.5340   48.3970 C.ar   22  TRP22       0.0012
     12  CZ2       30.5500    6.8250   48.0800 C.ar   22  TRP22       0.0191
     13  CZ3       32.8550    6.2170   48.4510 C.ar   22  TRP22       0.0001
     14  CH2       31.5080    5.8490   48.2790 C.ar   22  TRP22       0.0015
     15  N         38.4660   11.7520   46.1740 N.3    25  LYS25      -0.1245
     16  CA        37.9580   11.0810   45.0150 C.3    25  LYS25       0.1561
     17  C         37.0210   12.0220   44.2530 C.2    25  LYS25       0.2260
     18  O         36.8240   11.8700   43.0350 O.2    25  LYS25      -0.2867
     19  CB        37.1730    9.9410   45.5790 C.3    25  LYS25       0.0271
     20  CG        38.1350    8.8730   46.0780 C.3    25  LYS25       0.0035
     21  CD        37.4050    7.6360   46.6080 C.3    25  LYS25       0.0206
     22  CE        37.3340    6.3820   45.7170 C.3    25  LYS25       0.1093
     23  NZ        38.5890    5.9430   45.0570 N.3    25  LYS25      -0.1314
     24  N         19.2290    5.6160   46.2320 N.3    39  SER39      -0.1202
     25  CA        20.5540    5.5410   45.6580 C.3    39  SER39       0.2020
     26  C         20.4970    4.9420   44.2750 C.2    39  SER39       0.2619
     27  O         19.8030    3.9450   44.1070 O.2    39  SER39      -0.2717
     28  CB        21.4480    4.5890   46.4410 C.3    39  SER39       0.2103
     29  OG        22.7910    4.6740   45.9690 O.3    39  SER39      -0.2182
     30  N         21.3000    5.5000   43.3200 N.am   40  SER40      -0.1937
     31  CA        21.5350    4.8300   42.0270 C.3    40  SER40       0.2055
     32  C         22.3740    3.5290   42.3680 C.2    40  SER40       0.2643
     33  O         22.9140    3.3680   43.4840 O.2    40  SER40      -0.2714
     34  CB        22.4230    5.6650   41.1350 C.3    40  SER40       0.2130
     35  OG        21.5910    6.6960   40.7120 O.3    40  SER40      -0.2179
     36  N         22.4660    2.5810   41.4760 N.am   41  CYS41      -0.1953
     37  CA        23.1590    1.3570   41.8530 C.3    41  CYS41       0.1843
     38  C         23.6530    0.6960   40.6040 C.2    41  CYS41       0.2625
     39  O         23.5030    1.1950   39.5180 O.2    41  CYS41      -0.2714
     40  CB        22.2140    0.4540   42.6680 C.3    41  CYS41       0.0997
     41  SG        22.9160   -0.9560   43.6270 S.3    41  CYS41      -0.0797
     42  N         24.2980   -0.4500   40.7930 N.am   42  MET42      -0.1963
     43  CA        24.8230   -1.1950   39.6640 C.3    42  MET42       0.1736
     44  C         23.7980   -1.3960   38.5530 C.2    42  MET42       0.2617
     45  O         22.6930   -1.8850   38.8750 O.2    42  MET42      -0.2715
     46  CB        25.4300   -2.5530   40.1590 C.3    42  MET42       0.0427
     47  CG        26.8050   -2.3000   40.7590 C.3    42  MET42       0.0599
     48  SD        26.6870   -1.8080   42.4860 S.3    42  MET42      -0.1393
     49  CE        25.9460   -3.1800   43.3820 C.3    42  MET42       0.0692
     50  N         24.2000   -1.0800   37.2480 N.am   43  GLY43      -0.1955
     51  CA        23.2870   -1.2430   36.1080 C.3    43  GLY43       0.1869
     52  C         22.5720    0.0950   35.7630 C.2    43  GLY43       0.2309
     53  O         22.0710    0.2630   34.6240 O.2    43  GLY43      -0.2863
     54  N         24.4600    2.8880   35.7800 N.3    45  SER45      -0.1217
     55  CA        25.5500    3.6530   35.1900 C.3    45  SER45       0.1889
     56  C         25.2720    4.0890   33.7750 C.2    45  SER45       0.2288
     57  O         24.7550    3.2690   33.0450 O.2    45  SER45      -0.2866
     58  CB        26.8100    2.8030   35.0140 C.3    45  SER45       0.2089
     59  OG        27.3190    2.7560   36.3010 O.3    45  SER45      -0.2183
     60  N         24.9960    8.9640   35.5700 N.3    63  VAL63      -0.1231
     61  CA        25.2650    7.9400   36.6290 C.3    63  VAL63       0.1692
     62  C         26.6930    7.3290   36.4650 C.2    63  VAL63       0.2593
     63  O         27.0090    6.7950   35.4180 O.2    63  VAL63      -0.2718
     64  CB        24.2430    6.8270   36.6380 C.3    63  VAL63       0.0266
     65  CG1       24.5460    6.0140   37.9240 C.3    63  VAL63       0.0020
     66  CG2       22.8460    7.5020   36.7040 C.3    63  VAL63       0.0020
     67  N         27.5170    7.5180   37.5020 N.am   64  SER64      -0.1938
     68  CA        28.9220    7.0960   37.4400 C.3    64  SER64       0.2055
     69  C         29.3240    6.0770   38.4930 C.2    64  SER64       0.2643
     70  O         29.5070    4.9150   38.1460 O.2    64  SER64      -0.2714
     71  CB        29.8040    8.3650   37.4700 C.3    64  SER64       0.2130
     72  OG        31.1710    8.0580   37.2470 O.3    64  SER64      -0.2179
     73  N         29.4330    6.4710   39.7660 N.am   65  TRP65      -0.1959
     74  CA        29.8430    5.5270   40.7820 C.3    65  TRP65       0.1771
     75  C         29.3570    5.9590   42.1200 C.2    65  TRP65       0.2620
     76  O         28.7870    6.9880   42.2140 O.2    65  TRP65      -0.2715
     77  CB        31.3850    5.4410   40.8230 C.3    65  TRP65       0.0590
     78  CG        32.1070    6.7090   41.1360 C.ar   65  TRP65       0.0006
     79  CD1       32.4980    7.6650   40.2310 C.ar   65  TRP65       0.0946
     80  CD2       32.6010    7.1630   42.4230 C.ar   65  TRP65       0.0152
     81  NE1       33.1240    8.7150   40.8530 N.ar   65  TRP65      -0.2442
     82  CE2       33.2760    8.3900   42.2000 C.ar   65  TRP65       0.0810
     83  CE3       32.5600    6.6880   43.7470 C.ar   65  TRP65       0.0012
     84  CZ2       33.8960    9.1020   43.2590 C.ar   65  TRP65       0.0191
     85  CZ3       33.1660    7.3730   44.7870 C.ar   65  TRP65       0.0001
     86  CH2       33.8120    8.5940   44.5420 C.ar   65  TRP65       0.0015
     87  N         29.5990    5.1970   43.1430 N.am   66  GLY66      -0.1940
     88  CA        29.1600    5.5090   44.5070 C.3    66  GLY66       0.2014
     89  C         29.5350    4.3410   45.4240 C.2    66  GLY66       0.2640
     90  O         30.4490    3.5940   45.1100 O.2    66  GLY66      -0.2714
     91  N         28.7800    4.1580   46.5170 N.am   67  SER67      -0.1935
     92  CA        28.9250    3.1070   47.5240 C.3    67  SER67       0.2055
     93  C         28.8680    1.6970   46.9080 C.2    67  SER67       0.2644
     94  O         28.0110    1.4700   46.0500 O.2    67  SER67      -0.2714
     95  CB        27.8550    3.3970   48.5620 C.3    67  SER67       0.2130
     96  OG        27.4230    2.2440   49.2150 O.3    67  SER67      -0.2179
     97  N         29.7740    0.7470   47.2760 N.am   68  SER68      -0.1935
     98  CA        29.7150   -0.5890   46.6580 C.3    68  SER68       0.2055
     99  C         28.4740   -1.3160   47.0690 C.2    68  SER68       0.2644
    100  O         28.1080   -2.2960   46.4680 O.2    68  SER68      -0.2714
    101  CB        30.8480   -1.5120   47.0940 C.3    68  SER68       0.2130
    102  OG        30.9470   -1.3270   48.5000 O.3    68  SER68      -0.2179
    103  N         27.8330   -0.8360   48.1050 N.am   69  THR69      -0.1936
    104  CA        26.5880   -1.4700   48.5470 C.3    69  THR69       0.2028
    105  C         25.3300   -0.6420   48.2580 C.2    69  THR69       0.2642
    106  O         24.2820   -0.9820   48.7710 O.2    69  THR69      -0.2714
    107  CB        26.6830   -1.5530   50.0700 C.3    69  THR69       0.1808
    108  OG1       27.2440   -0.3230   50.5180 O.3    69  THR69      -0.2208
    109  CG2       27.7190   -2.6730   50.3200 C.3    69  THR69       0.0379
    110  N         25.4580    0.4310   47.4970 N.am   70  CYS70      -0.1967
    111  CA        24.3340    1.2690   47.1500 C.3    70  CYS70       0.1712
    112  C         23.6430    1.7890   48.3880 C.2    70  CYS70       0.2296
    113  O         22.4370    1.8620   48.4420 O.2    70  CYS70      -0.2864
    114  CB        23.3760    0.5810   46.2320 C.3    70  CYS70       0.0983
    115  SG        24.3020   -0.0710   44.8230 S.3    70  CYS70      -0.0798
    116  N         25.5970    9.5060   45.7630 N.3    76  GLY76      -0.1210
    117  CA        26.0220    8.8650   44.5010 C.3    76  GLY76       0.1956
    118  C         26.8270    9.9420   43.7440 C.2    76  GLY76       0.2611
    119  O         26.6910   11.1500   44.0200 O.2    76  GLY76      -0.2717
    120  N         27.7390    9.4880   42.8530 N.am   77  VAL77      -0.1979
    121  CA        28.5660   10.4130   42.1070 C.3    77  VAL77       0.1595
    122  C         28.2140   10.2420   40.6710 C.2    77  VAL77       0.2287
    123  O         28.1270    9.1560   40.1800 O.2    77  VAL77      -0.2864
    124  CB        30.0860   10.1630   42.3470 C.3    77  VAL77       0.0276
    125  CG1       30.9670   11.3410   41.8780 C.3    77  VAL77       0.0022
    126  CG2       30.2160    9.9450   43.8600 C.3    77  VAL77       0.0022
@<TRIPOS>BOND
     1    57    56    2
     2    56    55    1
     3    53    52    2
     4    58    55    1
     5    58    59    1
     6    55    54    1
     7    63    62    2
     8    60    61    1
     9    52    51    1
    10    51    50    1
    11    62    61    1
    12    62    67   am
    13    61    64    1
    14    64    66    1
    15    64    65    1
    16    72    71    1
    17    50    44   am
    18    68    71    1
    19    68    67    1
    20    68    69    1
    21    70    69    2
    22    69    73   am
    23    44    45    2
    24    44    43    1
    25    39    38    2
    26    43    46    1
    27    43    42    1
    28    73    74    1
    29    46    47    1
    30   123   122    2
    31    79    81   ar
    32    79    78   ar
    33    38    42   am
    34    38    37    1
    35   122   121    1
    36    35    34    1
    37    47    48    1
    38    74    77    1
    39    74    75    1
    40    77    78    1
    41    81    82   ar
    42    34    31    1
    43    78    80   ar
    44    36    37    1
    45    36    32   am
    46    37    40    1
    47   125   124    1
    48    31    32    1
    49    31    30    1
    50   121   124    1
    51   121   120    1
    52    75    76    2
    53    75    87   am
    54    82    80   ar
    55    82    84   ar
    56   124   126    1
    57    32    33    2
    58    80    83   ar
    59    48    49    1
    60    40    41    1
    61   120   118   am
    62    18    17    2
    63    87    88    1
    64    84    86   ar
    65    30    26   am
    66    41   115    1
    67   118   119    2
    68   118   117    1
    69    83    85   ar
    70    27    26    2
    71    17    16    1
    72    26    25    1
    73   117   116    1
    74    88    89    1
    75    86    85   ar
    76   115   114    1
    77    16    19    1
    78    16    15    1
    79    23    22    1
    80    90    89    2
    81    89    91   am
    82    19    20    1
    83    25    24    1
    84    25    28    1
    85    22    21    1
    86    29    28    1
    87    94    93    2
    88    20    21    1
    89   114   111    1
    90   100    99    2
    91    91    92    1
    92    98    99    1
    93    98   101    1
    94    98    97    1
    95    93    97   am
    96    93    92    1
    97    99   103   am
    98   101   102    1
    99   111   110    1
   100   111   112    1
   101   110   105   am
   102    92    95    1
   103     9     7   ar
   104     9    10   ar
   105     7     6   ar
   106    10    12   ar
   107    10     8   ar
   108     6     5    1
   109     6     8   ar
   110    12    14   ar
   111   103   104    1
   112     5     2    1
   113     8    11   ar
   114   105   104    1
   115   105   106    2
   116    14    13   ar
   117   112   113    2
   118    11    13   ar
   119   104   107    1
   120    95    96    1
   121     4     3    2
   122     3     2    1
   123     2     1    1
   124   107   109    1
   125   107   108    1
