@<TRIPOS>MOLECULE
tmp/1gcvD00.pdb
 222 210 0 0 0
SMALL
GASTEIGER

@<TRIPOS>ATOM
      1  N        -46.2040  -41.6340   43.5990 N.3    28  LEU28      -0.1245
      2  CA       -46.5000  -42.0400   44.9670 C.3    28  LEU28       0.1561
      3  C        -46.2250  -43.5300   45.1370 C.2    28  LEU28       0.2260
      4  O        -45.6070  -43.9450   46.1170 O.2    28  LEU28      -0.2867
      5  CB       -47.9600  -41.7440   45.3170 C.3    28  LEU28       0.0270
      6  CG       -48.2120  -40.3690   45.9340 C.3    28  LEU28       0.0019
      7  CD1      -49.6920  -40.0480   45.8570 C.3    28  LEU28       0.0001
      8  CD2      -47.7320  -40.3520   47.3720 C.3    28  LEU28       0.0001
      9  N        -42.5370  -44.0750   45.1600 N.3    31  MET31      -0.1245
     10  CA       -41.9290  -43.6710   46.4200 C.3    31  MET31       0.1570
     11  C        -42.1580  -44.7000   47.5260 C.2    31  MET31       0.2261
     12  O        -41.2850  -44.9130   48.3600 O.2    31  MET31      -0.2867
     13  CB       -42.4720  -42.3060   46.8580 C.3    31  MET31       0.0387
     14  CG       -41.9460  -41.8230   48.2060 C.3    31  MET31       0.0595
     15  SD       -42.8350  -40.3700   48.8180 S.3    31  MET31      -0.1393
     16  CE       -44.3640  -41.0530   49.3410 C.3    31  MET31       0.0692
     17  N        -41.7140  -44.2890   53.9750 N.3    38  THR38      -0.1218
     18  CA       -42.7100  -43.2410   53.7650 C.3    38  THR38       0.1862
     19  C        -44.1290  -43.7940   53.9150 C.2    38  THR38       0.2287
     20  O        -45.0890  -43.0300   53.9880 O.2    38  THR38      -0.2866
     21  CB       -42.5690  -42.5810   52.3740 C.3    38  THR38       0.1770
     22  OG1      -42.6530  -43.5830   51.3560 O.3    38  THR38      -0.2211
     23  CG2      -41.2320  -41.8440   52.2570 C.3    38  THR38       0.0375
     24  N        -46.8980  -43.1090   57.2730 N.3    41  TYR41      -0.1227
     25  CA       -47.9460  -42.1080   57.4150 C.3    41  TYR41       0.1736
     26  C        -49.3200  -42.5760   56.9590 C.2    41  TYR41       0.2595
     27  O        -50.3210  -41.9280   57.2550 O.2    41  TYR41      -0.2718
     28  CB       -47.5670  -40.8480   56.6400 C.3    41  TYR41       0.0548
     29  CG       -46.2220  -40.2910   57.0250 C.ar   41  TYR41      -0.0200
     30  CD1      -46.0370  -39.6530   58.2500 C.ar   41  TYR41      -0.0009
     31  CD2      -45.1250  -40.4110   56.1680 C.ar   41  TYR41      -0.0009
     32  CE1      -44.7870  -39.1470   58.6180 C.ar   41  TYR41       0.0417
     33  CE2      -43.8740  -39.9090   56.5220 C.ar   41  TYR41       0.0417
     34  CZ       -43.7130  -39.2790   57.7470 C.ar   41  TYR41       0.1957
     35  OH       -42.4820  -38.7830   58.0980 O.3    41  TYR41      -0.2866
     36  N        -49.3780  -43.6970   56.2490 N.am   42  PHE42      -0.1976
     37  CA       -50.6520  -44.1980   55.7450 C.3    42  PHE42       0.1639
     38  C        -51.0080  -45.5950   56.2420 C.2    42  PHE42       0.2290
     39  O        -52.0430  -46.1400   55.8700 O.2    42  PHE42      -0.2864
     40  CB       -50.6390  -44.1980   54.2140 C.3    42  PHE42       0.0560
     41  CG       -50.0950  -42.9320   53.6080 C.ar   42  PHE42      -0.0200
     42  CD1      -48.7460  -42.8210   53.2850 C.ar   42  PHE42      -0.0042
     43  CD2      -50.9350  -41.8500   53.3520 C.ar   42  PHE42      -0.0042
     44  CE1      -48.2410  -41.6530   52.7160 C.ar   42  PHE42      -0.0003
     45  CE2      -50.4410  -40.6770   52.7830 C.ar   42  PHE42      -0.0003
     46  CZ       -49.0920  -40.5790   52.4650 C.ar   42  PHE42      -0.0000
     47  N        -54.2900  -45.3570   57.9780 N.3    45  ARG45      -0.1245
     48  CA       -55.3790  -44.7880   57.1850 C.3    45  ARG45       0.1563
     49  C        -55.9810  -45.9130   56.3480 C.2    45  ARG45       0.2260
     50  O        -55.5760  -46.1410   55.2080 O.2    45  ARG45      -0.2867
     51  CB       -54.8570  -43.6760   56.2710 C.3    45  ARG45       0.0307
     52  CG       -55.9260  -43.0390   55.3900 C.3    45  ARG45       0.0489
     53  CD       -55.4920  -41.6780   54.8670 C.3    45  ARG45       0.2205
     54  NE       -54.9910  -40.8210   55.9380 N.pl3  45  ARG45      -0.0865
     55  CZ       -53.7220  -40.7790   56.3330 C.cat  45  ARG45       0.5346
     56  NH1      -52.8190  -41.5470   55.7430 N.pl3  45  ARG45       0.1354
     57  NH2      -53.3560  -39.9760   57.3220 N.pl3  45  ARG45       0.1354
     58  N        -57.1440  -45.4560   52.5080 N.3    48  PHE48      -0.1241
     59  CA       -56.1960  -44.7810   51.6320 C.3    48  PHE48       0.1605
     60  C        -56.1450  -45.3060   50.1970 C.2    48  PHE48       0.2264
     61  O        -56.1570  -46.5140   49.9580 O.2    48  PHE48      -0.2867
     62  CB       -54.7910  -44.8340   52.2430 C.3    48  PHE48       0.0534
     63  CG       -53.7700  -44.0450   51.4710 C.ar   48  PHE48      -0.0203
     64  CD1      -52.8000  -44.6940   50.7130 C.ar   48  PHE48      -0.0042
     65  CD2      -53.8080  -42.6520   51.4680 C.ar   48  PHE48      -0.0042
     66  CE1      -51.8860  -43.9710   49.9590 C.ar   48  PHE48      -0.0003
     67  CE2      -52.9010  -41.9170   50.7190 C.ar   48  PHE48      -0.0003
     68  CZ       -51.9360  -42.5770   49.9610 C.ar   48  PHE48      -0.0000
     69  N        -55.2550  -39.4810   46.7810 N.3    53  HIS53      -0.1241
     70  CA       -54.2490  -38.6300   47.4060 C.3    53  HIS53       0.1621
     71  C        -53.4770  -37.8200   46.3680 C.2    53  HIS53       0.2264
     72  O        -53.1350  -36.6630   46.6030 O.2    53  HIS53      -0.2867
     73  CB       -53.2810  -39.4870   48.2190 C.3    53  HIS53       0.0745
     74  CG       -52.3590  -38.7080   49.1230 C.ar   53  HIS53       0.0817
     75  ND1      -52.7660  -38.1150   50.3120 N.ar   53  HIS53      -0.2268
     76  CD2      -51.0110  -38.4510   48.8450 C.ar   53  HIS53       0.1154
     77  CE1      -51.6620  -37.4590   50.7210 C.ar   53  HIS53       0.1986
     78  NE2      -50.6520  -37.6240   49.9230 N.ar   53  HIS53      -0.2212
     79  N        -55.1970  -34.7160   45.1530 N.3    56  ILE56      -0.1231
     80  CA       -55.1080  -33.7130   46.1890 C.3    56  ILE56       0.1692
     81  C        -53.7170  -33.0800   46.1760 C.2    56  ILE56       0.2591
     82  O        -53.5800  -31.8630   46.3260 O.2    56  ILE56      -0.2718
     83  CB       -55.3960  -34.3390   47.5640 C.3    56  ILE56       0.0266
     84  CG1      -56.9100  -34.4420   47.7620 C.3    56  ILE56       0.0019
     85  CG2      -54.7840  -33.5010   48.6720 C.3    56  ILE56       0.0020
     86  CD1      -57.3200  -35.3950   48.8610 C.3    56  ILE56       0.0001
     87  N        -52.6870  -33.9010   45.9870 N.am   57  VAL57      -0.1980
     88  CA       -51.3250  -33.3840   45.9500 C.3    57  VAL57       0.1595
     89  C        -51.1470  -32.5020   44.7060 C.2    57  VAL57       0.2287
     90  O        -50.5660  -31.4140   44.7810 O.2    57  VAL57      -0.2864
     91  CB       -50.2780  -34.5420   45.9550 C.3    57  VAL57       0.0276
     92  CG1      -48.8820  -34.0010   45.6600 C.3    57  VAL57       0.0022
     93  CG2      -50.2810  -35.2350   47.3150 C.3    57  VAL57       0.0022
     94  N        -52.5030  -28.8670   45.0170 N.3    60  ALA60      -0.1231
     95  CA       -51.6440  -27.8600   45.6430 C.3    60  ALA60       0.1694
     96  C        -50.5270  -27.3790   44.7060 C.2    60  ALA60       0.2591
     97  O        -50.1620  -26.1990   44.7060 O.2    60  ALA60      -0.2718
     98  CB       -51.0450  -28.4220   46.9400 C.3    60  ALA60       0.0304
     99  N        -49.9900  -28.2990   43.9100 N.am   61  LEU61      -0.1980
    100  CA       -48.9200  -27.9710   42.9720 C.3    61  LEU61       0.1596
    101  C        -49.4400  -27.0480   41.8760 C.2    61  LEU61       0.2287
    102  O        -48.7400  -26.1300   41.4430 O.2    61  LEU61      -0.2864
    103  CB       -48.3510  -29.2540   42.3500 C.3    61  LEU61       0.0297
    104  CG       -47.5090  -30.1590   43.2590 C.3    61  LEU61       0.0022
    105  CD1      -47.0530  -31.3660   42.4610 C.3    61  LEU61       0.0001
    106  CD2      -46.3070  -29.3910   43.8170 C.3    61  LEU61       0.0001
    107  N        -48.2890  -21.5640   50.5710 N.3    75  PHE75      -0.1241
    108  CA       -48.1620  -22.8260   51.3120 C.3    75  PHE75       0.1605
    109  C        -48.0310  -22.7290   52.8290 C.2    75  PHE75       0.2264
    110  O        -47.8650  -23.7510   53.4990 O.2    75  PHE75      -0.2867
    111  CB       -46.9600  -23.6180   50.7880 C.3    75  PHE75       0.0534
    112  CG       -47.2420  -24.4050   49.5510 C.ar   75  PHE75      -0.0203
    113  CD1      -46.4040  -25.4420   49.1770 C.ar   75  PHE75      -0.0042
    114  CD2      -48.3360  -24.1090   48.7530 C.ar   75  PHE75      -0.0042
    115  CE1      -46.6520  -26.1770   48.0210 C.ar   75  PHE75      -0.0003
    116  CE2      -48.5930  -24.8400   47.5940 C.ar   75  PHE75      -0.0003
    117  CZ       -47.7470  -25.8760   47.2290 C.ar   75  PHE75      -0.0000
    118  N        -50.5570  -24.9630   54.5780 N.3    78  LEU78      -0.1245
    119  CA       -50.2950  -26.3520   54.2180 C.3    78  LEU78       0.1561
    120  C        -49.0530  -26.8470   54.9470 C.2    78  LEU78       0.2260
    121  O        -48.9940  -27.9980   55.3800 O.2    78  LEU78      -0.2867
    122  CB       -50.0940  -26.4900   52.7080 C.3    78  LEU78       0.0270
    123  CG       -49.8990  -27.9270   52.2130 C.3    78  LEU78       0.0019
    124  CD1      -51.1380  -28.7480   52.5220 C.3    78  LEU78       0.0001
    125  CD2      -49.6040  -27.9290   50.7200 C.3    78  LEU78       0.0001
    126  N        -49.8470  -27.5780   58.5020 N.3    81  LYS81      -0.1231
    127  CA       -50.6500  -28.7960   58.5650 C.3    81  LYS81       0.1693
    128  C        -49.7320  -30.0180   58.6330 C.2    81  LYS81       0.2592
    129  O        -49.9140  -30.9050   59.4760 O.2    81  LYS81      -0.2718
    130  CB       -51.5440  -28.9050   57.3270 C.3    81  LYS81       0.0285
    131  CG       -53.0160  -29.0940   57.6290 C.3    81  LYS81       0.0035
    132  CD       -53.4430  -30.5490   57.4850 C.3    81  LYS81       0.0206
    133  CE       -54.7980  -30.7850   58.1530 C.3    81  LYS81       0.1093
    134  NZ       -55.2120  -32.2210   58.1500 N.3    81  LYS81      -0.1314
    135  N        -48.7430  -30.0550   57.7420 N.am   82  HIS82      -0.1976
    136  CA       -47.8020  -31.1680   57.6850 C.3    82  HIS82       0.1656
    137  C        -46.9230  -31.2230   58.9250 C.2    82  HIS82       0.2291
    138  O        -46.5590  -32.3020   59.3910 O.2    82  HIS82      -0.2864
    139  CB       -46.9280  -31.0460   56.4390 C.3    82  HIS82       0.0771
    140  CG       -47.6820  -31.4850   55.2070 C.ar   82  HIS82       0.0820
    141  ND1      -48.5560  -30.6460   54.5520 N.ar   82  HIS82      -0.2267
    142  CD2      -47.5460  -32.7120   54.5610 C.ar   82  HIS82       0.1154
    143  CE1      -48.9350  -31.3520   53.4980 C.ar   82  HIS82       0.1986
    144  NE2      -48.4030  -32.5380   53.4640 N.ar   82  HIS82      -0.2212
    145  N        -50.1530  -33.3920   60.7580 N.3    86  LEU86      -0.1245
    146  CA       -49.7380  -34.6420   60.1460 C.3    86  LEU86       0.1561
    147  C        -48.4000  -35.1960   60.6320 C.2    86  LEU86       0.2260
    148  O        -48.1520  -36.4010   60.5300 O.2    86  LEU86      -0.2867
    149  CB       -49.7210  -34.4790   58.6300 C.3    86  LEU86       0.0270
    150  CG       -51.0430  -33.9810   58.0420 C.3    86  LEU86       0.0019
    151  CD1      -50.8210  -33.4510   56.6310 C.3    86  LEU86       0.0001
    152  CD2      -52.0460  -35.1230   58.0350 C.3    86  LEU86       0.0001
    153  N        -45.3300  -34.9580   59.4220 N.3    88  VAL88      -0.1245
    154  CA       -44.5640  -35.5680   58.3500 C.3    88  VAL88       0.1561
    155  C        -43.1260  -35.0510   58.4000 C.2    88  VAL88       0.2260
    156  O        -42.8890  -33.8440   58.5110 O.2    88  VAL88      -0.2867
    157  CB       -45.1810  -35.2330   56.9730 C.3    88  VAL88       0.0252
    158  CG1      -44.2510  -35.6740   55.8550 C.3    88  VAL88       0.0019
    159  CG2      -46.5290  -35.9140   56.8430 C.3    88  VAL88       0.0019
    160  N        -38.5430  -35.9130   54.0920 N.3    92  SER92      -0.1202
    161  CA       -39.1140  -36.9040   53.1930 C.3    92  SER92       0.2020
    162  C        -39.7940  -36.2620   51.9800 C.2    92  SER92       0.2618
    163  O        -40.1060  -36.9520   51.0110 O.2    92  SER92      -0.2717
    164  CB       -40.1170  -37.7840   53.9500 C.3    92  SER92       0.2103
    165  OG       -39.4500  -38.5870   54.9090 O.3    92  SER92      -0.2182
    166  N        -40.0130  -34.9480   52.0230 N.am   93  PHE93      -0.1975
    167  CA       -40.6630  -34.2440   50.9150 C.3    93  PHE93       0.1639
    168  C        -39.9860  -34.4690   49.5620 C.2    93  PHE93       0.2290
    169  O        -40.6640  -34.7190   48.5670 O.2    93  PHE93      -0.2864
    170  CB       -40.7310  -32.7320   51.1950 C.3    93  PHE93       0.0560
    171  CG       -41.7180  -32.3570   52.2690 C.ar   93  PHE93      -0.0200
    172  CD1      -41.3590  -31.4800   53.2800 C.ar   93  PHE93      -0.0042
    173  CD2      -42.9980  -32.9020   52.2790 C.ar   93  PHE93      -0.0042
    174  CE1      -42.2550  -31.1550   54.2870 C.ar   93  PHE93      -0.0003
    175  CE2      -43.9030  -32.5810   53.2830 C.ar   93  PHE93      -0.0003
    176  CZ       -43.5280  -31.7050   54.2900 C.ar   93  PHE93      -0.0000
    177  N        -40.6600  -37.7430   47.2890 N.3    96  LEU96      -0.1231
    178  CA       -41.8190  -37.7580   46.3970 C.3    96  LEU96       0.1693
    179  C        -41.5280  -36.9310   45.1440 C.2    96  LEU96       0.2592
    180  O        -41.7640  -37.3940   44.0340 O.2    96  LEU96      -0.2718
    181  CB       -43.0730  -37.1930   47.0870 C.3    96  LEU96       0.0284
    182  CG       -44.2750  -36.9700   46.1530 C.3    96  LEU96       0.0019
    183  CD1      -44.7110  -38.3060   45.5770 C.3    96  LEU96       0.0001
    184  CD2      -45.4300  -36.3150   46.9030 C.3    96  LEU96       0.0001
    185  N        -41.0160  -35.7120   45.3220 N.am   97  THR97      -0.1953
    186  CA       -40.7100  -34.8530   44.1810 C.3    97  THR97       0.1897
    187  C        -39.6440  -35.4880   43.2870 C.2    97  THR97       0.2313
    188  O        -39.6730  -35.3210   42.0710 O.2    97  THR97      -0.2863
    189  CB       -40.2500  -33.4420   44.6310 C.3    97  THR97       0.1794
    190  OG1      -39.1300  -33.5520   45.5120 O.3    97  THR97      -0.2208
    191  CG2      -41.3760  -32.7230   45.3450 C.3    97  THR97       0.0378
    192  N        -41.3740  -37.9030   41.2250 N.3   100  ILE100     -0.1245
    193  CA       -42.2200  -37.2690   40.2260 C.3   100  ILE100      0.1561
    194  C        -41.3160  -36.9770   39.0310 C.2   100  ILE100      0.2260
    195  O        -41.7280  -37.1130   37.8750 O.2   100  ILE100     -0.2867
    196  CB       -42.8470  -35.9400   40.7420 C.3   100  ILE100      0.0252
    197  CG1      -43.9670  -36.2370   41.7450 C.3   100  ILE100      0.0019
    198  CG2      -43.4180  -35.1380   39.5670 C.3   100  ILE100      0.0019
    199  CD1      -44.4770  -35.0150   42.4820 C.3   100  ILE100      0.0001
    200  N        -40.7720  -25.5270   45.9550 N.3   127  VAL127     -0.1231
    201  CA       -41.9440  -26.1350   46.5760 C.3   127  VAL127      0.1692
    202  C        -41.5900  -26.8070   47.9050 C.2   127  VAL127      0.2591
    203  O        -42.3290  -26.6650   48.8830 O.2   127  VAL127     -0.2718
    204  CB       -42.6070  -27.1760   45.6160 C.3   127  VAL127      0.0266
    205  CG1      -43.5340  -28.1040   46.3890 C.3   127  VAL127      0.0020
    206  CG2      -43.3740  -26.4560   44.5140 C.3   127  VAL127      0.0020
    207  N        -40.4710  -27.5330   47.9500 N.am  128  ILE128     -0.1980
    208  CA       -40.0540  -28.2010   49.1860 C.3   128  ILE128      0.1595
    209  C        -39.7050  -27.1450   50.2460 C.2   128  ILE128      0.2287
    210  O        -40.0000  -27.3210   51.4300 O.2   128  ILE128     -0.2864
    211  CB       -38.8250  -29.1350   48.9580 C.3   128  ILE128      0.0276
    212  CG1      -39.2390  -30.3590   48.1410 C.3   128  ILE128      0.0022
    213  CG2      -38.2590  -29.6020   50.2990 C.3   128  ILE128      0.0022
    214  CD1      -38.0650  -31.0990   47.5440 C.3   128  ILE128      0.0001
    215  N        -43.1210  -25.7020   51.5590 N.3   131  ILE131     -0.1245
    216  CA       -43.8650  -26.6170   52.4220 C.3   131  ILE131      0.1561
    217  C        -43.1210  -26.9710   53.7210 C.2   131  ILE131      0.2260
    218  O        -43.7090  -27.5320   54.6490 O.2   131  ILE131     -0.2867
    219  CB       -44.2760  -27.9230   51.6390 C.3   131  ILE131      0.0252
    220  CG1      -45.4460  -28.6130   52.3560 C.3   131  ILE131      0.0019
    221  CG2      -43.0930  -28.8780   51.5000 C.3   131  ILE131      0.0019
    222  CD1      -46.1670  -29.6630   51.5150 C.3   131  ILE131      0.0001
@<TRIPOS>BOND
     1   195   194    2
     2   194   193    1
     3   198   196    1
     4   193   196    1
     5   193   192    1
     6   196   197    1
     7   102   101    2
     8   197   199    1
     9   101   100    1
    10   188   187    2
    11   103   100    1
    12   103   104    1
    13   105   104    1
    14   100    99    1
    15   104   106    1
    16   187   186    1
    17     1     2    1
    18    99    96   am
    19   180   179    2
    20   186   189    1
    21   186   185    1
    22   206   204    1
    23   189   191    1
    24   189   190    1
    25    89    90    2
    26    89    88    1
    27    97    96    2
    28    96    95    1
    29     2     3    1
    30     2     5    1
    31    94    95    1
    32     3     4    2
    33   179   185   am
    34   179   178    1
    35    79    80    1
    36     9    10    1
    37     5     6    1
    38   183   182    1
    39   204   205    1
    40   204   201    1
    41    95    98    1
    42    92    91    1
    43     7     6    1
    44     6     8    1
    45    88    91    1
    46    88    87    1
    47   200   201    1
    48    91    93    1
    49    87    81   am
    50   182   184    1
    51   182   181    1
    52    81    80    1
    53    81    82    2
    54    80    83    1
    55    71    72    2
    56    71    70    1
    57   178   181    1
    58   178   177    1
    59    10    13    1
    60    10    11    1
    61   201   202    1
    62    69    70    1
    63    13    14    1
    64   117   116   ar
    65   117   115   ar
    66    70    73    1
    67    11    12    2
    68   214   212    1
    69    83    84    1
    70    83    85    1
    71   116   114   ar
    72    84    86    1
    73   202   207   am
    74   202   203    2
    75   207   208    1
    76   115   113   ar
    77   212   211    1
    78    14    15    1
    79    73    74    1
    80   169   168    2
    81   114   112   ar
    82    15    16    1
    83    76    74   ar
    84    76    78   ar
    85   211   208    1
    86   211   213    1
    87    74    75   ar
    88   113   112   ar
    89   208   209    1
    90   112   111    1
    91   168   167    1
    92    78    77   ar
    93    61    60    2
    94    66    68   ar
    95    66    64   ar
    96    68    67   ar
    97    60    59    1
    98   209   210    2
    99    75    77   ar
   100   107   108    1
   101    64    63   ar
   102    67    65   ar
   103   125   123    1
   104   111   108    1
   105   167   170    1
   106   167   166    1
   107   163   162    2
   108   170   171    1
   109   108   109    1
   110    22    21    1
   111    65    63   ar
   112    63    62    1
   113   221   219    1
   114   222   220    1
   115   215   216    1
   116    59    62    1
   117    59    58    1
   118   219   220    1
   119   219   216    1
   120   162   166   am
   121   162   161    1
   122   123   124    1
   123   123   122    1
   124    23    21    1
   125   171   173   ar
   126   171   172   ar
   127   173   175   ar
   128    21    18    1
   129   216   217    1
   130    46    44   ar
   131    46    45   ar
   132   122   119    1
   133    44    42   ar
   134    45    43   ar
   135   109   110    2
   136   161   164    1
   137   161   160    1
   138   172   174   ar
   139   175   176   ar
   140    42    41   ar
   141    43    41   ar
   142   144   143   ar
   143   144   142   ar
   144   143   141   ar
   145    41    40    1
   146   217   218    2
   147    18    19    1
   148    18    17    1
   149    19    20    2
   150   164   165    1
   151    40    37    1
   152   119   118    1
   153   119   120    1
   154   174   176   ar
   155   141   140   ar
   156   142   140   ar
   157    53    52    1
   158    53    54    1
   159   120   121    2
   160   140   139    1
   161    50    49    2
   162    52    51    1
   163    56    55    1
   164    37    38    1
   165    37    36    1
   166   158   157    1
   167    39    38    2
   168    54    55    2
   169    31    33   ar
   170    31    29   ar
   171    36    26   am
   172    51    48    1
   173    55    57    1
   174    49    48    1
   175   139   136    1
   176    33    34   ar
   177   151   150    1
   178    28    29    1
   179    28    25    1
   180   159   157    1
   181    26    27    2
   182    26    25    1
   183   157   154    1
   184    29    30   ar
   185    48    47    1
   186    24    25    1
   187   130   131    1
   188   130   127    1
   189   132   131    1
   190   132   133    1
   191   136   135    1
   192   136   137    1
   193   135   128   am
   194    34    35    1
   195    34    32   ar
   196   152   150    1
   197   150   149    1
   198   134   133    1
   199    30    32   ar
   200   154   155    1
   201   154   153    1
   202   155   156    2
   203   126   127    1
   204   127   128    1
   205   149   146    1
   206   128   129    2
   207   137   138    2
   208   146   147    1
   209   146   145    1
   210   148   147    2
