@<TRIPOS>MOLECULE
tmp/1gcwA00.pdb
 215 203 0 0 0
SMALL
GASTEIGER

@<TRIPOS>ATOM
      1  N         27.5780   26.2020   29.6550 N.3    32  LEU32      -0.1245
      2  CA        26.5720   27.2570   29.7550 C.3    32  LEU32       0.1561
      3  C         25.4290   27.0380   28.7750 C.2    32  LEU32       0.2260
      4  O         24.2580   27.1780   29.1290 O.2    32  LEU32      -0.2867
      5  CB        27.1910   28.6290   29.4770 C.3    32  LEU32       0.0270
      6  CG        26.1660   29.7690   29.4560 C.3    32  LEU32       0.0019
      7  CD1       25.6120   29.9640   30.8590 C.3    32  LEU32       0.0001
      8  CD2       26.8060   31.0570   28.9570 C.3    32  LEU32       0.0001
      9  N         20.8230   31.4520   26.7610 N.3    39  SER39      -0.1217
     10  CA        22.0540   32.1790   26.5140 C.3    39  SER39       0.1889
     11  C         22.6220   31.9330   25.1150 C.2    39  SER39       0.2288
     12  O         23.5820   32.5840   24.7060 O.2    39  SER39      -0.2866
     13  CB        23.0950   31.7980   27.5630 C.3    39  SER39       0.2089
     14  OG        23.5690   30.4810   27.3450 O.3    39  SER39      -0.2183
     15  N         22.6620   34.9200   22.1780 N.3    42  TYR42      -0.1227
     16  CA        23.6010   36.0330   22.1140 C.3    42  TYR42       0.1736
     17  C         24.7180   35.7460   21.1260 C.2    42  TYR42       0.2595
     18  O         25.4950   36.6300   20.7740 O.2    42  TYR42      -0.2718
     19  CB        24.2230   36.2850   23.4880 C.3    42  TYR42       0.0548
     20  CG        23.2520   36.8050   24.5060 C.ar   42  TYR42      -0.0200
     21  CD1       22.5910   35.9330   25.3700 C.ar   42  TYR42      -0.0009
     22  CD2       22.9860   38.1670   24.6090 C.ar   42  TYR42      -0.0009
     23  CE1       21.6830   36.4040   26.3190 C.ar   42  TYR42       0.0417
     24  CE2       22.0820   38.6510   25.5490 C.ar   42  TYR42       0.0417
     25  CZ        21.4320   37.7650   26.4010 C.ar   42  TYR42       0.1957
     26  OH        20.5220   38.2350   27.3190 O.3    42  TYR42      -0.2866
     27  N         24.8070   34.5000   20.6830 N.am   43  PHE43      -0.1976
     28  CA        25.8680   34.1070   19.7650 C.3    43  PHE43       0.1639
     29  C         25.3550   33.5290   18.4460 C.2    43  PHE43       0.2290
     30  O         24.3350   32.8320   18.4000 O.2    43  PHE43      -0.2864
     31  CB        26.7940   33.0920   20.4610 C.3    43  PHE43       0.0560
     32  CG        27.3180   33.5580   21.8050 C.ar   43  PHE43      -0.0200
     33  CD1       28.5300   34.2430   21.8980 C.ar   43  PHE43      -0.0042
     34  CD2       26.5960   33.3160   22.9750 C.ar   43  PHE43      -0.0042
     35  CE1       29.0130   34.6780   23.1340 C.ar   43  PHE43      -0.0003
     36  CE2       27.0710   33.7470   24.2140 C.ar   43  PHE43      -0.0003
     37  CZ        28.2800   34.4280   24.2940 C.ar   43  PHE43      -0.0000
     38  N         26.2910   31.0010   16.4110 N.3    45  TYR45      -0.1241
     39  CA        27.0940   29.7940   16.2770 C.3    45  TYR45       0.1605
     40  C         26.3060   28.6580   15.6510 C.2    45  TYR45       0.2264
     41  O         25.0820   28.5850   15.7710 O.2    45  TYR45      -0.2867
     42  CB        27.6040   29.3300   17.6470 C.3    45  TYR45       0.0534
     43  CG        28.5730   30.2670   18.3400 C.ar   45  TYR45      -0.0201
     44  CD1       29.2520   31.2660   17.6320 C.ar   45  TYR45      -0.0009
     45  CD2       28.8090   30.1570   19.7130 C.ar   45  TYR45      -0.0009
     46  CE1       30.1400   32.1320   18.2740 C.ar   45  TYR45       0.0417
     47  CE2       29.6910   31.0150   20.3650 C.ar   45  TYR45       0.0417
     48  CZ        30.3500   31.9980   19.6410 C.ar   45  TYR45       0.1957
     49  OH        31.2060   32.8540   20.2900 O.3    45  TYR45      -0.2866
     50  N         36.1830   32.1410   21.0720 N.3    58  HIS58      -0.1241
     51  CA        35.5620   32.9980   22.0740 C.3    58  HIS58       0.1621
     52  C         35.9110   32.5420   23.4870 C.2    58  HIS58       0.2264
     53  O         36.2190   33.3660   24.3490 O.2    58  HIS58      -0.2867
     54  CB        34.0460   33.0090   21.8990 C.3    58  HIS58       0.0745
     55  CG        33.6240   34.4080   22.3050 C.ar   58  HIS58       0.0817
     56  ND1       32.6780   34.6210   23.3060 N.ar   58  HIS58      -0.2268
     57  CD2       34.1000   35.5980   21.7110 C.ar   58  HIS58       0.1154
     58  CE1       32.5720   35.9370   23.2610 C.ar   58  HIS58       0.1986
     59  NE2       33.3440   36.5290   22.4120 N.ar   58  HIS58      -0.2212
     60  N         38.9450   33.9040   24.6030 N.3    61  LYS61      -0.1231
     61  CA        38.8720   35.3290   24.9100 C.3    61  LYS61       0.1693
     62  C         38.3480   35.5160   26.3270 C.2    61  LYS61       0.2591
     63  O         38.8610   36.3390   27.0740 O.2    61  LYS61      -0.2718
     64  CB        37.9590   36.0510   23.9170 C.3    61  LYS61       0.0285
     65  CG        38.7110   36.6860   22.7610 C.3    61  LYS61       0.0035
     66  CD        38.1510   36.2280   21.4290 C.3    61  LYS61       0.0206
     67  CE        38.3150   37.2850   20.3500 C.3    61  LYS61       0.1093
     68  NZ        37.0430   37.5050   19.6070 N.3    61  LYS61      -0.1314
     69  N         37.3280   34.7440   26.6870 N.am   62  VAL62      -0.1980
     70  CA        36.7300   34.8040   28.0180 C.3    62  VAL62       0.1595
     71  C         37.7440   34.4520   29.1090 C.2    62  VAL62       0.2287
     72  O         37.9060   35.1940   30.0840 O.2    62  VAL62      -0.2864
     73  CB        35.5490   33.8190   28.1460 C.3    62  VAL62       0.0276
     74  CG1       34.9790   33.8670   29.5500 C.3    62  VAL62       0.0022
     75  CG2       34.4860   34.1510   27.1380 C.3    62  VAL62       0.0022
     76  N         40.4760   36.9310   29.5300 N.3    65  ALA65      -0.1231
     77  CA        39.8840   38.0850   30.1910 C.3    65  ALA65       0.1694
     78  C         39.8800   37.8270   31.6930 C.2    65  ALA65       0.2591
     79  O         40.2300   38.7010   32.4840 O.2    65  ALA65      -0.2718
     80  CB        38.4560   38.2970   29.6910 C.3    65  ALA65       0.0304
     81  N         39.4800   36.6190   32.0780 N.am   66  VAL66      -0.1980
     82  CA        39.4440   36.2340   33.4830 C.3    66  VAL66       0.1595
     83  C         40.8620   36.2010   34.0430 C.2    66  VAL66       0.2287
     84  O         41.1200   36.7010   35.1350 O.2    66  VAL66      -0.2864
     85  CB        38.8090   34.8460   33.6590 C.3    66  VAL66       0.0276
     86  CG1       38.9280   34.3960   35.1000 C.3    66  VAL66       0.0022
     87  CG2       37.3570   34.8900   33.2350 C.3    66  VAL66       0.0022
     88  N         38.1090   46.7450   33.9920 N.3    80  LEU80      -0.1245
     89  CA        36.9910   46.1800   33.2330 C.3    80  LEU80       0.1561
     90  C         35.9940   47.1810   32.6440 C.2    80  LEU80       0.2260
     91  O         34.9320   46.7860   32.1530 O.2    80  LEU80      -0.2867
     92  CB        36.2220   45.1960   34.1190 C.3    80  LEU80       0.0270
     93  CG        37.0450   44.0570   34.7170 C.3    80  LEU80       0.0019
     94  CD1       36.2450   43.3750   35.8140 C.3    80  LEU80       0.0001
     95  CD2       37.4170   43.0680   33.6150 C.3    80  LEU80       0.0001
     96  N         35.0200   46.3990   29.0340 N.3    83  LEU83      -0.1245
     97  CA        34.2780   45.1440   28.9950 C.3    83  LEU83       0.1561
     98  C         32.8950   45.3340   29.5850 C.2    83  LEU83       0.2260
     99  O         31.9170   44.7570   29.1070 O.2    83  LEU83      -0.2867
    100  CB        35.0220   44.0570   29.7730 C.3    83  LEU83       0.0270
    101  CG        35.1850   42.7050   29.0740 C.3    83  LEU83       0.0019
    102  CD1       35.5620   42.9350   27.6150 C.3    83  LEU83       0.0001
    103  CD2       36.2620   41.8840   29.7830 C.3    83  LEU83       0.0001
    104  N         30.7050   47.0590   27.0800 N.3    86  THR86      -0.1203
    105  CA        30.4110   46.1530   25.9870 C.3    86  THR86       0.1994
    106  C         29.2150   45.2790   26.3500 C.2    86  THR86       0.2617
    107  O         28.2550   45.1690   25.5880 O.2    86  THR86      -0.2717
    108  CB        31.6220   45.2680   25.7110 C.3    86  THR86       0.1784
    109  OG1       32.7110   46.0910   25.2770 O.3    86  THR86      -0.2211
    110  CG2       31.2970   44.2250   24.6550 C.3    86  THR86       0.0376
    111  N         29.2690   44.6620   27.5270 N.am   87  HIS87      -0.1975
    112  CA        28.1790   43.7960   27.9780 C.3    87  HIS87       0.1656
    113  C         26.9470   44.5940   28.3920 C.2    87  HIS87       0.2291
    114  O         25.8180   44.2100   28.0840 O.2    87  HIS87      -0.2864
    115  CB        28.6400   42.9280   29.1540 C.3    87  HIS87       0.0771
    116  CG        29.6100   41.8920   28.6300 C.ar   87  HIS87       0.0820
    117  ND1       30.9880   42.1020   28.6650 N.ar   87  HIS87      -0.2267
    118  CD2       29.2620   40.6370   28.1340 C.ar   87  HIS87       0.1154
    119  CE1       31.4660   40.9440   28.1910 C.ar   87  HIS87       0.1986
    120  NE2       30.5290   40.0890   27.9030 N.ar   87  HIS87      -0.2212
    121  N         26.4300   47.9930   24.9320 N.3    90  LYS90      -0.1231
    122  CA        26.3670   47.4110   23.5910 C.3    90  LYS90       0.1693
    123  C         25.4930   46.1630   23.4760 C.2    90  LYS90       0.2591
    124  O         24.3960   46.2100   22.9120 O.2    90  LYS90      -0.2718
    125  CB        27.7670   47.0720   23.1000 C.3    90  LYS90       0.0285
    126  CG        28.2980   48.0100   22.0480 C.3    90  LYS90       0.0035
    127  CD        29.6950   47.5970   21.6240 C.3    90  LYS90       0.0206
    128  CE        29.6790   46.2010   21.0050 C.3    90  LYS90       0.1093
    129  NZ        30.8790   45.9430   20.1550 N.3    90  LYS90      -0.1314
    130  N         25.9840   45.0520   24.0220 N.am   91  LEU91      -0.1980
    131  CA        25.2900   43.7650   23.9680 C.3    91  LEU91       0.1596
    132  C         23.9640   43.6460   24.7210 C.2    91  LEU91       0.2287
    133  O         23.1190   42.8200   24.3600 O.2    91  LEU91      -0.2864
    134  CB        26.2320   42.6690   24.4510 C.3    91  LEU91       0.0297
    135  CG        27.2670   42.0830   23.4870 C.3    91  LEU91       0.0022
    136  CD1       27.2020   42.7390   22.1160 C.3    91  LEU91       0.0001
    137  CD2       28.6370   42.2600   24.1120 C.3    91  LEU91       0.0001
    138  N         23.3740   42.3870   27.6110 N.3    93  VAL93      -0.1245
    139  CA        23.2960   41.0640   28.2190 C.3    93  VAL93       0.1561
    140  C         22.4910   41.0700   29.5210 C.2    93  VAL93       0.2260
    141  O         22.8030   41.8130   30.4480 O.2    93  VAL93      -0.2867
    142  CB        24.7070   40.5310   28.5180 C.3    93  VAL93       0.0252
    143  CG1       24.6180   39.2930   29.3920 C.3    93  VAL93       0.0019
    144  CG2       25.4400   40.2310   27.2100 C.3    93  VAL93       0.0019
    145  N         22.2290   36.0650   33.3400 N.3    97  ASN97      -0.1225
    146  CA        23.1930   35.1590   32.7300 C.3    97  ASN97       0.1785
    147  C         24.5790   35.1050   33.3500 C.2    97  ASN97       0.2597
    148  O         25.2720   34.1000   33.2250 O.2    97  ASN97      -0.2718
    149  CB        23.3570   35.4930   31.2470 C.3    97  ASN97       0.1169
    150  CG        22.1030   35.2490   30.4570 C.2    97  ASN97       0.2627
    151  OD1       21.3380   36.1730   30.1750 O.2    97  ASN97      -0.2716
    152  ND2       21.8780   33.9980   30.0890 N.am   97  ASN97      -0.0877
    153  N         25.0040   36.1770   34.0000 N.am   98  PHE98      -0.1976
    154  CA        26.3450   36.1940   34.5700 C.3    98  PHE98       0.1639
    155  C         26.6210   35.0970   35.5950 C.2    98  PHE98       0.2290
    156  O         27.6190   34.3820   35.4900 O.2    98  PHE98      -0.2864
    157  CB        26.6420   37.5700   35.1670 C.3    98  PHE98       0.0560
    158  CG        26.8810   38.6280   34.1360 C.ar   98  PHE98      -0.0200
    159  CD1       25.9690   39.6620   33.9540 C.ar   98  PHE98      -0.0042
    160  CD2       28.0140   38.5890   33.3370 C.ar   98  PHE98      -0.0042
    161  CE1       26.1830   40.6470   32.9860 C.ar   98  PHE98      -0.0003
    162  CE2       28.2350   39.5660   32.3690 C.ar   98  PHE98      -0.0003
    163  CZ        27.3150   40.5970   32.1950 C.ar   98  PHE98      -0.0000
    164  N         27.1990   31.6020   34.0370 N.3   101  LEU101     -0.1231
    165  CA        28.4860   31.3750   33.3990 C.3   101  LEU101      0.1693
    166  C         29.5550   31.1870   34.4530 C.2   101  LEU101      0.2592
    167  O         30.4750   30.3900   34.2770 O.2   101  LEU101     -0.2718
    168  CB        28.8630   32.5390   32.4800 C.3   101  LEU101      0.0284
    169  CG        30.2760   32.4150   31.9050 C.3   101  LEU101      0.0019
    170  CD1       30.4110   31.1330   31.1130 C.3   101  LEU101      0.0001
    171  CD2       30.5620   33.6070   31.0260 C.3   101  LEU101      0.0001
    172  N         29.4330   31.9230   35.5530 N.am  102  SER102     -0.1952
    173  CA        30.3980   31.8120   36.6440 C.3   102  SER102      0.1924
    174  C         30.3430   30.4130   37.2310 C.2   102  SER102      0.2314
    175  O         31.3740   29.8020   37.4960 O.2   102  SER102     -0.2863
    176  CB        30.0840   32.8210   37.7410 C.3   102  SER102      0.2116
    177  OG        30.2250   34.1420   37.2540 O.3   102  SER102     -0.2180
    178  N         32.0020   28.0690   34.9900 N.3   105  ILE105     -0.1245
    179  CA        33.4500   28.1790   35.0340 C.3   105  ILE105      0.1561
    180  C         33.9730   27.4020   36.2400 C.2   105  ILE105      0.2260
    181  O         35.0470   26.7930   36.1870 O.2   105  ILE105     -0.2867
    182  CB        33.9050   29.6330   35.2050 C.3   105  ILE105      0.0252
    183  CG1       33.6390   30.4210   33.9240 C.3   105  ILE105      0.0019
    184  CG2       35.3830   29.6720   35.5780 C.3   105  ILE105      0.0019
    185  CD1       33.7900   31.9220   34.0990 C.3   105  ILE105      0.0001
    186  N         35.3710   35.6440   40.5510 N.3   128  LEU128     -0.1245
    187  CA        34.2910   35.5930   39.5900 C.3   128  LEU128      0.1561
    188  C         33.2020   36.5840   39.9610 C.2   128  LEU128      0.2260
    189  O         32.6670   37.2810   39.1030 O.2   128  LEU128     -0.2867
    190  CB        33.7240   34.1790   39.5200 C.3   128  LEU128      0.0270
    191  CG        34.2140   33.3170   38.3540 C.3   128  LEU128      0.0019
    192  CD1       35.6460   33.6400   37.9990 C.3   128  LEU128      0.0001
    193  CD2       34.0860   31.8680   38.7400 C.3   128  LEU128      0.0001
    194  N         34.2890   40.2160   39.2290 N.3   131  ILE131     -0.1231
    195  CA        34.2780   40.3980   37.7810 C.3   131  ILE131      0.1692
    196  C         32.8630   40.6380   37.2530 C.2   131  ILE131      0.2592
    197  O         32.6130   41.5970   36.5260 O.2   131  ILE131     -0.2718
    198  CB        34.8580   39.1690   37.0520 C.3   131  ILE131      0.0266
    199  CG1       36.3270   38.9760   37.4230 C.3   131  ILE131      0.0019
    200  CG2       34.7210   39.3460   35.5500 C.3   131  ILE131      0.0020
    201  CD1       36.9990   37.8420   36.6620 C.3   131  ILE131      0.0001
    202  N         31.9330   39.7730   37.6380 N.am  132  CYS132     -0.1970
    203  CA        30.5700   39.8870   37.1570 C.3   132  CYS132      0.1712
    204  C         29.8190   41.1120   37.6360 C.2   132  CYS132      0.2296
    205  O         28.9150   41.5940   36.9460 O.2   132  CYS132     -0.2864
    206  CB        29.7850   38.6330   37.5200 C.3   132  CYS132      0.0983
    207  SG        30.2850   37.1890   36.5660 S.3   132  CYS132     -0.0798
    208  N         30.7950   43.8950   35.4170 N.3   135  LEU135     -0.1245
    209  CA        30.2230   43.6570   34.0900 C.3   135  LEU135      0.1561
    210  C         28.7370   43.9240   34.0190 C.2   135  LEU135      0.2260
    211  O         28.1540   43.9070   32.9380 O.2   135  LEU135     -0.2867
    212  CB        30.4850   42.2160   33.6390 C.3   135  LEU135      0.0270
    213  CG        31.5240   42.0050   32.5370 C.3   135  LEU135      0.0019
    214  CD1       32.8070   42.7570   32.8600 C.3   135  LEU135      0.0001
    215  CD2       31.8030   40.5230   32.3960 C.3   135  LEU135      0.0001
@<TRIPOS>BOND
     1    40    41    2
     2    40    39    1
     3    39    38    1
     4    39    42    1
     5    44    46   ar
     6    44    43   ar
     7    42    43    1
     8    46    48   ar
     9    43    45   ar
    10    30    29    2
    11    29    28    1
    12    68    67    1
    13    48    49    1
    14    48    47   ar
    15    45    47   ar
    16    28    31    1
    17    28    27    1
    18   129   128    1
    19    67    66    1
    20    31    32    1
    21    27    17   am
    22    18    17    2
    23   128   127    1
    24    50    51    1
    25    17    16    1
    26    66    65    1
    27   127   126    1
    28    57    55   ar
    29    57    59   ar
    30    32    33   ar
    31    32    34   ar
    32    33    35   ar
    33    54    51    1
    34    54    55    1
    35   126   125    1
    36    51    52    1
    37    16    15    1
    38    16    19    1
    39   136   135    1
    40    55    56   ar
    41    59    58   ar
    42    65    64    1
    43   124   123    2
    44    34    36   ar
    45   125   122    1
    46    35    37   ar
    47    58    56   ar
    48   123   122    1
    49   123   130   am
    50    52    53    2
    51   135   137    1
    52   135   134    1
    53    19    20    1
    54   122   121    1
    55    64    61    1
    56   131   130    1
    57   131   134    1
    58   131   132    1
    59    36    37   ar
    60   133   132    2
    61    20    22   ar
    62    20    21   ar
    63    60    61    1
    64    22    24   ar
    65   110   108    1
    66    12    11    2
    67    61    62    1
    68    11    10    1
    69   109   108    1
    70    21    23   ar
    71    24    25   ar
    72   107   106    2
    73   108   105    1
    74   105   106    1
    75   105   104    1
    76    23    25   ar
    77    62    69   am
    78    62    63    2
    79   106   111   am
    80    25    26    1
    81    10     9    1
    82    10    13    1
    83    69    70    1
    84    75    73    1
    85   144   142    1
    86    14    13    1
    87   111   112    1
    88   138   139    1
    89   102   101    1
    90   120   118   ar
    91   120   119   ar
    92   112   113    1
    93   112   115    1
    94    70    73    1
    95    70    71    1
    96   114   113    2
    97   118   116   ar
    98    73    74    1
    99   119   117   ar
   100   139   142    1
   101   139   140    1
   102   142   143    1
   103   116   117   ar
   104   116   115    1
   105     3     4    2
   106     3     2    1
   107     8     6    1
   108    97    96    1
   109    97    98    1
   110    97   100    1
   111   101   100    1
   112   101   103    1
   113    99    98    2
   114    71    72    2
   115     6     5    1
   116     6     7    1
   117     5     2    1
   118   140   141    2
   119    76    77    1
   120     1     2    1
   121    80    77    1
   122   152   150   am
   123   151   150    2
   124    77    78    1
   125   150   149    1
   126   171   169    1
   127   170   169    1
   128   149   146    1
   129    78    81   am
   130    78    79    2
   131   169   168    1
   132    81    82    1
   133    91    90    2
   134   163   162   ar
   135   163   161   ar
   136   162   160   ar
   137   215   213    1
   138   168   165    1
   139   213   214    1
   140   213   212    1
   141    90    89    1
   142   146   145    1
   143   146   147    1
   144   211   210    2
   145   161   159   ar
   146   148   147    2
   147    89    88    1
   148    89    92    1
   149    87    85    1
   150   160   158   ar
   151   147   153   am
   152   165   164    1
   153   165   166    1
   154    82    85    1
   155    82    83    1
   156    95    93    1
   157   212   209    1
   158    85    86    1
   159   183   185    1
   160   183   182    1
   161   159   158   ar
   162   153   154    1
   163   210   209    1
   164    83    84    2
   165   209   208    1
   166    92    93    1
   167   158   157    1
   168   167   166    2
   169   166   172   am
   170   154   157    1
   171   154   155    1
   172    93    94    1
   173   178   179    1
   174   179   182    1
   175   179   180    1
   176   182   184    1
   177   156   155    2
   178   200   198    1
   179   172   173    1
   180   181   180    2
   181   197   196    2
   182   207   206    1
   183   173   174    1
   184   173   176    1
   185   201   199    1
   186   205   204    2
   187   198   199    1
   188   198   195    1
   189   203   206    1
   190   203   204    1
   191   203   202    1
   192   174   175    2
   193   196   202   am
   194   196   195    1
   195   177   176    1
   196   195   194    1
   197   192   191    1
   198   191   193    1
   199   191   190    1
   200   189   188    2
   201   190   187    1
   202   187   188    1
   203   187   186    1
