@<TRIPOS>MOLECULE
tmp/1gczB02.pdb
 111 111 0 0 0
SMALL
GASTEIGER

@<TRIPOS>ATOM
      1  N         47.8620   38.3130   -1.5760 N.3     1  PRO1       -0.2102
      2  CA        48.9470   39.1360   -0.9570 C.3     1  PRO1        0.1504
      3  C         48.5580   39.7060    0.4040 C.2     1  PRO1        0.2578
      4  O         47.3750   39.8880    0.7010 O.2     1  PRO1       -0.2718
      5  CB        49.2940   40.2370   -1.9320 C.3     1  PRO1        0.0282
      6  CG        48.7910   39.6550   -3.3000 C.3     1  PRO1        0.0208
      7  CD        47.8740   38.4400   -3.0440 C.3     1  PRO1        0.0893
      8  N         49.5630   40.0070    1.2260 N.am    2  MET2       -0.1934
      9  CA        49.3230   40.5130    2.5590 C.3     2  MET2        0.1821
     10  C         50.2480   41.7080    2.7990 C.2     2  MET2        0.2332
     11  O         51.4570   41.5710    2.6870 O.2     2  MET2       -0.2860
     12  CB        49.6370   39.4150    3.5660 C.2     2  MET2        0.0096
     13  CG        49.3150   39.7480    4.9850 C.2     2  MET2        0.0285
     14  SD        50.0250   38.6040    6.2300 S.3     2  MET2       -0.1125
     15  CE        48.9710   37.0680    5.9260 C.3     2  MET2        0.0742
     16  N         47.1950   40.4780   -8.7610 N.3    32  LYS32      -0.1231
     17  CA        46.3540   39.5470   -8.0320 C.3    32  LYS32       0.1678
     18  C         44.9480   40.1210   -7.8510 C.2    32  LYS32       0.2434
     19  O         44.7670   41.3320   -7.7700 O.2    32  LYS32      -0.2733
     20  CB        46.9660   39.2510   -6.6540 C.3    32  LYS32       0.0284
     21  CG        48.4040   38.7090   -6.6820 C.3    32  LYS32       0.0035
     22  CD        48.4280   37.1630   -6.6740 C.3    32  LYS32       0.0206
     23  CE        49.8780   36.6160   -6.6070 C.3    32  LYS32       0.1093
     24  NZ        49.9470   35.1600   -6.2070 N.3    32  LYS32      -0.1314
     25  N         43.9330   39.2570   -7.7640 N.am   33  PRO33      -0.2729
     26  CA        42.5680   39.7620   -7.5900 C.3    33  PRO33       0.1401
     27  C         42.4130   40.4300   -6.2280 C.2    33  PRO33       0.2269
     28  O         42.8980   39.9210   -5.2080 O.2    33  PRO33      -0.2865
     29  CB        41.7050   38.5090   -7.7420 C.3    33  PRO33       0.0296
     30  CG        42.6200   37.3700   -7.3520 C.3    33  PRO33       0.0237
     31  CD        43.9950   37.7820   -7.7860 C.3    33  PRO33       0.0939
     32  N         41.6280   38.7350   -2.7720 N.3    36  TYR36      -0.1241
     33  CA        42.6220   37.9670   -2.0420 C.3    36  TYR36       0.1605
     34  C         43.6800   38.8380   -1.3600 C.2    36  TYR36       0.2264
     35  O         44.5750   38.3190   -0.7100 O.2    36  TYR36      -0.2867
     36  CB        43.2660   36.9360   -2.9660 C.3    36  TYR36       0.0534
     37  CG        42.3270   35.7800   -3.2700 C.ar   36  TYR36      -0.0201
     38  CD1       42.1690   34.7250   -2.3640 C.ar   36  TYR36      -0.0009
     39  CD2       41.6080   35.7340   -4.4700 C.ar   36  TYR36      -0.0009
     40  CE1       41.3160   33.6400   -2.6430 C.ar   36  TYR36       0.0417
     41  CE2       40.7490   34.6530   -4.7650 C.ar   36  TYR36       0.0417
     42  CZ        40.6160   33.6130   -3.8420 C.ar   36  TYR36       0.1957
     43  OH        39.7960   32.5380   -4.1240 O.3    36  TYR36      -0.2866
     44  N         53.8330   40.3670    1.6800 N.3    62  HIS62      -0.1226
     45  CA        54.0310   38.9210    1.4560 C.3    62  HIS62       0.1752
     46  C         53.2220   38.5910    0.2050 C.2    62  HIS62       0.2597
     47  O         52.0720   38.9940    0.0990 O.2    62  HIS62      -0.2718
     48  CB        53.4160   38.0720    2.6060 C.3    62  HIS62       0.0759
     49  CG        54.1640   38.1210    3.9020 C.ar   62  HIS62       0.0818
     50  ND1       54.0200   39.1490    4.8080 N.ar   62  HIS62      -0.2268
     51  CD2       55.0260   37.2430    4.4670 C.ar   62  HIS62       0.1154
     52  CE1       54.7590   38.9030    5.8750 C.ar   62  HIS62       0.1986
     53  NE2       55.3810   37.7500    5.6890 N.ar   62  HIS62      -0.2212
     54  N         53.7950   37.8340   -0.7260 N.am   63  SER63      -0.1938
     55  CA        53.0680   37.4380   -1.9210 C.3    63  SER63       0.2055
     56  C         53.6010   36.0810   -2.4030 C.2    63  SER63       0.2642
     57  O         54.7800   35.7680   -2.1860 O.2    63  SER63      -0.2714
     58  CB        53.2690   38.4780   -3.0160 C.3    63  SER63       0.2130
     59  OG        52.6430   38.1080   -4.2230 O.3    63  SER63      -0.2179
     60  N         52.7460   35.2750   -3.0280 N.am   64  ILE64      -0.1977
     61  CA        53.2130   33.9880   -3.5670 C.3    64  ILE64       0.1596
     62  C         53.6400   34.3730   -4.9800 C.2    64  ILE64       0.2287
     63  O         52.8170   34.5790   -5.8820 O.2    64  ILE64      -0.2864
     64  CB        52.0810   32.9050   -3.5720 C.3    64  ILE64       0.0276
     65  CG1       51.5820   32.6930   -2.1420 C.3    64  ILE64       0.0022
     66  CG2       52.6150   31.5690   -4.1440 C.3    64  ILE64       0.0022
     67  CD1       50.3980   31.7580   -1.9910 C.3    64  ILE64       0.0001
     68  N         56.5240   34.1680   -0.7430 N.3   101  MET101     -0.1245
     69  CA        56.0680   32.9720   -0.0580 C.3   101  MET101      0.1570
     70  C         55.8730   31.7550   -0.9510 C.2   101  MET101      0.2261
     71  O         55.4360   31.8610   -2.1040 O.2   101  MET101     -0.2867
     72  CB        54.7580   33.2590    0.6640 C.3   101  MET101      0.0387
     73  CG        54.8030   34.4820    1.5610 C.3   101  MET101      0.0595
     74  SD        55.8150   34.1790    2.9750 S.3   101  MET101     -0.1393
     75  CE        54.8660   33.0770    3.9910 C.3   101  MET101      0.0692
     76  N         51.5600   29.0270    2.9110 N.3   106  VAL106     -0.1231
     77  CA        50.5090   30.0140    3.1350 C.3   106  VAL106      0.1692
     78  C         49.2060   29.2790    3.3950 C.2   106  VAL106      0.2593
     79  O         48.6590   28.5960    2.4850 O.2   106  VAL106     -0.2718
     80  CB        50.2970   30.9190    1.9300 C.3   106  VAL106      0.0266
     81  CG1       49.1710   31.9090    2.2320 C.3   106  VAL106      0.0020
     82  CG2       51.5770   31.6360    1.5850 C.3   106  VAL106      0.0020
     83  N         48.7120   29.4040    4.6210 N.am  107  GLY107     -0.1942
     84  CA        47.4690   28.7520    4.9750 C.3   107  GLY107      0.2014
     85  C         46.2810   29.6370    4.6610 C.2   107  GLY107      0.2638
     86  O         46.3500   30.8680    4.8170 O.2   107  GLY107     -0.2714
     87  N         45.1920   29.0140    4.2130 N.am  108  TRP108     -0.1973
     88  CA        43.9630   29.7510    3.9110 C.3   108  TRP108      0.1640
     89  C         42.8140   28.7580    3.7800 C.2   108  TRP108      0.2290
     90  O         43.0000   27.6700    3.2490 O.2   108  TRP108     -0.2864
     91  CB        44.0970   30.5190    2.5960 C.3   108  TRP108      0.0576
     92  CG        42.8120   31.1450    2.1590 C.ar  108  TRP108      0.0006
     93  CD1       42.1600   32.1960    2.7510 C.ar  108  TRP108      0.0946
     94  CD2       42.0000   30.7510    1.0390 C.ar  108  TRP108      0.0152
     95  NE1       40.9920   32.4800    2.0630 N.ar  108  TRP108     -0.2442
     96  CE2       40.8720   31.6110    1.0120 C.ar  108  TRP108      0.0810
     97  CE3       42.1180   29.7540    0.0570 C.ar  108  TRP108      0.0012
     98  CZ2       39.8640   31.5040    0.0350 C.ar  108  TRP108      0.0191
     99  CZ3       41.1160   29.6440   -0.9180 C.ar  108  TRP108      0.0001
    100  CH2       40.0040   30.5170   -0.9200 C.ar  108  TRP108      0.0015
    101  N         47.7610   26.9350   -0.0340 N.3   113  PHE113     -0.1241
    102  CA        47.6410   27.1730   -1.4660 C.3   113  PHE113      0.1605
    103  C         48.3650   26.0650   -2.2500 C.2   113  PHE113      0.2264
    104  O         48.4420   26.1220   -3.4680 O.2   113  PHE113     -0.2867
    105  CB        48.1870   28.5820   -1.8280 C.3   113  PHE113      0.0534
    106  CG        47.2180   29.7210   -1.5160 C.ar  113  PHE113     -0.0203
    107  CD1       46.1870   30.0460   -2.3990 C.ar  113  PHE113     -0.0042
    108  CD2       47.3190   30.4400   -0.3320 C.ar  113  PHE113     -0.0042
    109  CE1       45.2740   31.0660   -2.1000 C.ar  113  PHE113     -0.0003
    110  CE2       46.4080   31.4650   -0.0250 C.ar  113  PHE113     -0.0003
    111  CZ        45.3880   31.7790   -0.9020 C.ar  113  PHE113     -0.0000
@<TRIPOS>BOND
     1    16    17    1
     2    17    18    1
     3    17    20    1
     4    18    19    2
     5    18    25   am
     6    31    25    1
     7    31    30    1
     8    25    26    1
     9    29    26    1
    10    29    30    1
    11    26    27    1
    12    21    22    1
    13    21    20    1
    14    22    23    1
    15    23    24    1
    16    27    28    2
    17    63    62    2
    18    62    61    1
    19    41    39   ar
    20    41    42   ar
    21    39    37   ar
    22    59    58    1
    23    66    64    1
    24    43    42    1
    25    42    40   ar
    26    64    61    1
    27    64    65    1
    28    61    60    1
    29   104   103    2
    30     6     7    1
    31     6     5    1
    32    37    36    1
    33    37    38   ar
    34     7     1    1
    35    60    56   am
    36    58    55    1
    37    36    33    1
    38    32    33    1
    39    40    38   ar
    40    56    57    2
    41    56    55    1
    42   107   109   ar
    43   107   106   ar
    44   103   102    1
    45    65    67    1
    46    71    70    2
    47   109   111   ar
    48    33    34    1
    49     5     2    1
    50    55    54    1
    51   105   106    1
    52   105   102    1
    53     1     2    1
    54   106   108   ar
    55   102   101    1
    56    34    35    2
    57     2     3    1
    58    70    69    1
    59   100    99   ar
    60   100    98   ar
    61    99    97   ar
    62   111   110   ar
    63    68    69    1
    64    54    46   am
    65   108   110   ar
    66    69    72    1
    67    98    96   ar
    68    97    94   ar
    69    47    46    2
    70    46    45    1
    71     3     4    2
    72     3     8   am
    73    72    73    1
    74    96    94   ar
    75    96    95   ar
    76    94    92   ar
    77     8     9    1
    78    45    44    1
    79    45    48    1
    80    73    74    1
    81    82    80    1
    82    80    81    1
    83    80    77    1
    84    95    93   ar
    85    92    91    1
    86    92    93   ar
    87    79    78    2
    88     9    10    1
    89     9    12    1
    90    91    88    1
    91    48    49    1
    92    11    10    2
    93    76    77    1
    94    74    75    1
    95    77    78    1
    96    90    89    2
    97    78    83   am
    98    12    13    2
    99    89    88    1
   100    49    51   ar
   101    49    50   ar
   102    88    87    1
   103    87    85   am
   104    51    53   ar
   105    83    84    1
   106    85    86    2
   107    85    84    1
   108    50    52   ar
   109    13    14    1
   110    53    52   ar
   111    15    14    1
