@<TRIPOS>MOLECULE
tmp/1gd9A00.pdb
 135 126 0 0 0
SMALL
GASTEIGER

@<TRIPOS>ATOM
      1  N         35.4490   -1.1600   15.4060 N.3    33  GLY33      -0.1225
      2  CA        34.1250   -1.7640   15.3340 C.3    33  GLY33       0.1811
      3  C         32.9810   -0.7880   15.1090 C.2    33  GLY33       0.2280
      4  O         31.9670   -0.8350   15.8080 O.2    33  GLY33      -0.2866
      5  N         21.4700    3.2600   22.3710 N.3    94  GLY94      -0.1210
      6  CA        22.3130    2.3180   21.6640 C.3    94  GLY94       0.1956
      7  C         21.7210    0.9370   21.8520 C.2    94  GLY94       0.2612
      8  O         21.0790    0.6630   22.8690 O.2    94  GLY94      -0.2717
      9  N         21.9210    0.0650   20.8700 N.am   95  ALA95      -0.1965
     10  CA        21.4140   -1.2960   20.9440 C.3    95  ALA95       0.1728
     11  C         22.1150   -2.0930   22.0470 C.2    95  ALA95       0.2616
     12  O         21.5750   -3.0780   22.5410 O.2    95  ALA95      -0.2715
     13  CB        21.5970   -1.9830   19.6000 C.3    95  ALA95       0.0334
     14  N         23.3110   -1.6510   22.4360 N.am   96  ASN96      -0.1972
     15  CA        24.1000   -2.3170   23.4710 C.3    96  ASN96       0.1688
     16  C         23.3370   -2.4940   24.7800 C.2    96  ASN96       0.2292
     17  O         23.5040   -3.4990   25.4640 O.2    96  ASN96      -0.2864
     18  CB        25.3920   -1.5470   23.7280 C.3    96  ASN96       0.1181
     19  CG        26.4140   -2.3730   24.4670 C.2    96  ASN96       0.2629
     20  OD1       27.1060   -1.8820   25.3640 O.2    96  ASN96      -0.2716
     21  ND2       26.5300   -3.6360   24.0850 N.am   96  ASN96      -0.0877
     22  N         20.9560   -5.9610   25.7610 N.3    99  PHE99      -0.1241
     23  CA        21.4140   -7.2280   26.3170 C.3    99  PHE99       0.1605
     24  C         21.2500   -7.2910   27.8210 C.2    99  PHE99       0.2264
     25  O         20.5240   -8.1490   28.3230 O.2    99  PHE99      -0.2867
     26  CB        22.8390   -7.4990   25.8460 C.3    99  PHE99       0.0534
     27  CG        22.9900   -7.3290   24.3660 C.ar   99  PHE99      -0.0203
     28  CD1       23.7700   -6.3030   23.8420 C.ar   99  PHE99      -0.0042
     29  CD2       22.2430   -8.1180   23.4910 C.ar   99  PHE99      -0.0042
     30  CE1       23.7940   -6.0560   22.4740 C.ar   99  PHE99      -0.0003
     31  CE2       22.2590   -7.8790   22.1200 C.ar   99  PHE99      -0.0003
     32  CZ        23.0360   -6.8430   21.6140 C.ar   99  PHE99      -0.0000
     33  N         29.8400  -11.2480   19.7450 N.3   120  PHE120     -0.1241
     34  CA        30.0160   -9.8440   20.0880 C.3   120  PHE120      0.1605
     35  C         30.4490   -9.8340   21.5420 C.2   120  PHE120      0.2264
     36  O         29.9790  -10.6470   22.3430 O.2   120  PHE120     -0.2867
     37  CB        28.7010   -9.0800   19.9200 C.3   120  PHE120      0.0534
     38  CG        28.7980   -7.6090   20.2510 C.ar  120  PHE120     -0.0203
     39  CD1       27.8530   -7.0050   21.0800 C.ar  120  PHE120     -0.0042
     40  CD2       29.8310   -6.8290   19.7330 C.ar  120  PHE120     -0.0042
     41  CE1       27.9370   -5.6620   21.3820 C.ar  120  PHE120     -0.0003
     42  CE2       29.9160   -5.4770   20.0380 C.ar  120  PHE120     -0.0003
     43  CZ        28.9710   -4.8990   20.8600 C.ar  120  PHE120     -0.0000
     44  N         23.3570  -13.5300   16.5330 N.3   166  ASN166     -0.1240
     45  CA        23.7430  -12.2730   15.9230 C.3   166  ASN166      0.1653
     46  C         24.0310  -12.5240   14.4510 C.2   166  ASN166      0.2266
     47  O         25.0120  -13.1830   14.1000 O.2   166  ASN166     -0.2867
     48  CB        24.9800  -11.7310   16.6630 C.3   166  ASN166      0.1155
     49  CG        25.5690  -10.4890   16.0230 C.2   166  ASN166      0.2627
     50  OD1       24.8500   -9.5870   15.5830 O.2   166  ASN166     -0.2716
     51  ND2       26.8890  -10.4290   15.9820 N.am  166  ASN166     -0.0877
     52  N         29.1390  -10.2600   14.1600 N.3   170  ASN170     -0.1240
     53  CA        30.3640   -9.5540   14.5280 C.3   170  ASN170      0.1653
     54  C         30.9160  -10.6390   15.4650 C.2   170  ASN170      0.2266
     55  O         30.3110  -10.9200   16.5030 O.2   170  ASN170     -0.2867
     56  CB        30.0520   -8.2740   15.3140 C.3   170  ASN170      0.1155
     57  CG        31.3110   -7.5610   15.8100 C.2   170  ASN170      0.2627
     58  OD1       32.4320   -8.0410   15.6310 O.2   170  ASN170     -0.2716
     59  ND2       31.1220   -6.4060   16.4350 N.am  170  ASN170     -0.0877
     60  N         20.2760  -10.1220   17.5080 N.3   198  ASP198     -0.1239
     61  CA        21.0050   -8.8780   17.2770 C.3   198  ASP198      0.1674
     62  C         21.1790   -8.6560   15.7740 C.2   198  ASP198      0.2266
     63  O         22.0820   -9.2080   15.1480 O.2   198  ASP198     -0.2867
     64  CB        22.3510   -8.9410   17.9800 C.3   198  ASP198      0.1410
     65  CG        23.0980   -7.6180   17.9490 C.2   198  ASP198      0.3668
     66  OD1       24.1590   -7.5690   18.5900 O.co2 198  ASP198     -0.2456
     67  OD2       22.6560   -6.6450   17.2950 O.co2 198  ASP198     -0.2456
     68  N         21.7160   -5.4880   14.1070 N.3   200  VAL200     -0.1231
     69  CA        22.2590   -4.1740   13.7350 C.3   200  VAL200      0.1692
     70  C         22.9690   -4.0960   12.3740 C.2   200  VAL200      0.2592
     71  O         22.9870   -3.0380   11.7490 O.2   200  VAL200     -0.2718
     72  CB        23.1880   -3.5770   14.8380 C.3   200  VAL200      0.0266
     73  CG1       22.3980   -3.3150   16.1020 C.3   200  VAL200      0.0020
     74  CG2       24.3770   -4.4990   15.1240 C.3   200  VAL200      0.0020
     75  N         23.5330   -5.2070   11.9020 N.am  201  TYR201     -0.1976
     76  CA        24.2360   -5.2170   10.6180 C.3   201  TYR201      0.1639
     77  C         23.3780   -5.6610    9.4510 C.2   201  TYR201      0.2290
     78  O         23.8820   -5.8730    8.3540 O.2   201  TYR201     -0.2864
     79  CB        25.4600   -6.1210   10.6930 C.3   201  TYR201      0.0560
     80  CG        26.5540   -5.5830   11.5600 C.ar  201  TYR201     -0.0198
     81  CD1       26.7230   -6.0380   12.8690 C.ar  201  TYR201     -0.0009
     82  CD2       27.3990   -4.5860   11.0950 C.ar  201  TYR201     -0.0009
     83  CE1       27.7050   -5.5030   13.6890 C.ar  201  TYR201      0.0417
     84  CE2       28.3800   -4.0520   11.9030 C.ar  201  TYR201      0.0417
     85  CZ        28.5230   -4.5050   13.1970 C.ar  201  TYR201      0.1957
     86  OH        29.4610   -3.9090   13.9950 O.3   201  TYR201     -0.2866
     87  N         19.2060   -1.0810   15.6090 N.3   229  GLY229     -0.1225
     88  CA        19.5240    0.2920   15.9160 C.3   229  GLY229      0.1811
     89  C         19.9850    1.0500   14.6990 C.2   229  GLY229      0.2280
     90  O         20.0090    0.5120   13.5890 O.2   229  GLY229     -0.2866
     91  N         23.0860    2.8130   14.7700 N.3   231  SER231     -0.1202
     92  CA        24.5420    2.9650   14.8080 C.3   231  SER231      0.2020
     93  C         25.2970    2.5400   13.5510 C.2   231  SER231      0.2618
     94  O         26.0940    3.3070   13.0120 O.2   231  SER231     -0.2717
     95  CB        25.1350    2.2610   16.0310 C.3   231  SER231      0.2103
     96  OG        24.7580    2.9140   17.2280 O.3   231  SER231     -0.2182
     97  N         25.0370    1.3300   13.0700 N.am  232  LYS232     -0.1979
     98  CA        25.7370    0.8410   11.8890 C.3   232  LYS232      0.1596
     99  C         25.0290    1.2360   10.5850 C.2   232  LYS232      0.2287
    100  O         25.6680    1.7490    9.6540 O.2   232  LYS232     -0.2864
    101  CB        25.9410   -0.6830   12.0000 C.3   232  LYS232      0.0298
    102  CG        26.4910   -1.1380   13.3710 C.3   232  LYS232      0.0038
    103  CD        27.9270   -0.6480   13.6400 C.3   232  LYS232      0.0206
    104  CE        28.3340   -0.7140   15.1250 C.3   232  LYS232      0.1093
    105  NZ        27.6910   -1.8830   15.7420 N.3   232  LYS232     -0.1314
    106  N         26.8630    5.7820   15.3530 N.3   237  THR237     -0.1218
    107  CA        27.3480    5.1880   16.5990 C.3   237  THR237      0.1862
    108  C         27.4440    6.2030   17.7340 C.2   237  THR237      0.2287
    109  O         27.0520    5.9110   18.8600 O.2   237  THR237     -0.2866
    110  CB        28.7020    4.4730   16.4200 C.3   237  THR237      0.1770
    111  OG1       29.6400    5.3680   15.8270 O.3   237  THR237     -0.2211
    112  CG2       28.5460    3.2310   15.5290 C.3   237  THR237      0.0375
    113  N         24.0870    7.2550   19.8400 N.3   240  ARG240     -0.1231
    114  CA        23.5550    6.3600   20.8820 C.3   240  ARG240      0.1694
    115  C         22.0540    6.1140   20.7740 C.2   240  ARG240      0.2592
    116  O         21.2930    6.4490   21.6880 O.2   240  ARG240     -0.2718
    117  CB        23.8840    6.9150   22.2780 C.3   240  ARG240      0.0321
    118  CG        25.3420    7.3380   22.4940 C.3   240  ARG240      0.0489
    119  CD        26.3500    6.2600   22.0780 C.3   240  ARG240      0.2205
    120  NE        26.0590    4.9510   22.6570 N.pl3 240  ARG240     -0.0865
    121  CZ        25.8630    3.8410   21.9470 C.cat 240  ARG240      0.5346
    122  NH1       25.9250    3.8700   20.6170 N.pl3 240  ARG240      0.1354
    123  NH2       25.5850    2.7010   22.5710 N.pl3 240  ARG240      0.1354
    124  N         21.6370    5.5080   19.6670 N.am  241  LEU241     -0.1966
    125  CA        20.2250    5.2420   19.4300 C.3   241  LEU241      0.1728
    126  C         19.9830    3.8540   18.8380 C.2   241  LEU241      0.2616
    127  O         20.3480    3.5770   17.6940 O.2   241  LEU241     -0.2715
    128  CB        19.6320    6.3160   18.5050 C.3   241  LEU241      0.0311
    129  CG        18.1000    6.3960   18.5180 C.3   241  LEU241      0.0022
    130  CD1       17.6090    6.8770   19.8670 C.3   241  LEU241      0.0001
    131  CD2       17.6130    7.3190   17.4280 C.3   241  LEU241      0.0001
    132  N         19.3770    2.9890   19.6480 N.am  242  GLY242     -0.1955
    133  CA        19.0530    1.6400   19.2310 C.3   242  GLY242      0.1869
    134  C         17.6170    1.3630   19.6400 C.2   242  GLY242      0.2309
    135  O         16.9170    2.2660   20.1040 O.2   242  GLY242     -0.2863
@<TRIPOS>BOND
     1    78    77    2
     2    77    76    1
     3   100    99    2
     4    99    98    1
     5    76    79    1
     6    76    75    1
     7    79    80    1
     8    82    80   ar
     9    82    84   ar
    10    80    81   ar
    11    71    70    2
    12    98   101    1
    13    98    97    1
    14    75    70   am
    15    84    85   ar
    16   101   102    1
    17    70    69    1
    18    81    83   ar
    19    94    93    2
    20    97    93   am
    21    85    83   ar
    22    85    86    1
    23   102   103    1
    24    93    92    1
    25    90    89    2
    26   103   104    1
    27    69    68    1
    28    69    72    1
    29    47    46    2
    30    52    53    1
    31    46    45    1
    32    53    56    1
    33    53    54    1
    34    89    88    1
    35    91    92    1
    36    92    95    1
    37    72    74    1
    38    72    73    1
    39     3     2    1
    40     3     4    2
    41   104   105    1
    42    63    62    2
    43    56    57    1
    44     2     1    1
    45   106   107    1
    46    54    55    2
    47   112   110    1
    48    50    49    2
    49    87    88    1
    50    58    57    2
    51    62    61    1
    52    57    59   am
    53   111   110    1
    54    45    44    1
    55    45    48    1
    56    51    49   am
    57    49    48    1
    58    95    96    1
    59   110   107    1
    60   107   108    1
    61    61    60    1
    62    61    64    1
    63    67    65   ar
    64   131   129    1
    65   127   126    2
    66   108   109    2
    67    65    64    1
    68    65    66   ar
    69   128   129    1
    70   128   125    1
    71   129   130    1
    72   126   125    1
    73   126   132   am
    74   133   134    1
    75   133   132    1
    76   125   124    1
    77    13    10    1
    78   134   135    2
    79   124   115   am
    80    40    42   ar
    81    40    38   ar
    82    33    34    1
    83   113   114    1
    84    37    34    1
    85    37    38    1
    86    42    43   ar
    87    34    35    1
    88    38    39   ar
    89   122   121    1
    90   115   114    1
    91   115   116    2
    92    43    41   ar
    93     9    10    1
    94     9     7   am
    95   114   117    1
    96    10    11    1
    97    39    41   ar
    98    35    36    2
    99    32    31   ar
   100    32    30   ar
   101     6     7    1
   102     6     5    1
   103     7     8    2
   104   121   123    1
   105   121   120    2
   106    11    14   am
   107    11    12    2
   108   119   118    1
   109   119   120    1
   110    31    29   ar
   111   117   118    1
   112    14    15    1
   113    30    28   ar
   114    15    18    1
   115    15    16    1
   116    29    27   ar
   117    18    19    1
   118    28    27   ar
   119    21    19   am
   120    27    26    1
   121    19    20    2
   122    16    17    2
   123    22    23    1
   124    26    23    1
   125    23    24    1
   126    24    25    2
