@<TRIPOS>MOLECULE
tmp/1gdeA00.pdb
 118 112 0 0 0
SMALL
GASTEIGER

@<TRIPOS>ATOM
      1  N         40.0240   -5.9720   23.3710 N.3    14  ILE14      -0.1245
      2  CA        39.9570   -4.9110   22.3860 C.3    14  ILE14       0.1561
      3  C         40.5420   -3.5990   22.9390 C.2    14  ILE14       0.2260
      4  O         41.3450   -2.9480   22.2700 O.2    14  ILE14      -0.2867
      5  CB        38.4950   -4.6950   21.8950 C.3    14  ILE14       0.0252
      6  CG1       37.9640   -5.9790   21.2430 C.3    14  ILE14       0.0019
      7  CG2       38.4150   -3.5180   20.9160 C.3    14  ILE14       0.0019
      8  CD1       36.5750   -5.8370   20.6590 C.3    14  ILE14       0.0001
      9  N         38.3140   -1.2990   14.4280 N.3    32  ILE32      -0.1231
     10  CA        37.1790   -0.4060   14.7610 C.3    32  ILE32       0.1692
     11  C         35.8720   -0.9640   14.2090 C.2    32  ILE32       0.2593
     12  O         35.7050   -1.0690   12.9950 O.2    32  ILE32      -0.2718
     13  CB        37.3590    1.0130   14.1570 C.3    32  ILE32       0.0266
     14  CG1       38.8340    1.2990   13.8930 C.3    32  ILE32       0.0019
     15  CG2       36.7850    2.0870   15.1040 C.3    32  ILE32       0.0020
     16  CD1       39.1190    1.5690   12.4440 C.3    32  ILE32       0.0001
     17  N         34.9430   -1.2910   15.1010 N.am   33  GLY33      -0.1942
     18  CA        33.6630   -1.8290   14.6800 C.3    33  GLY33       0.2014
     19  C         32.5710   -0.7800   14.5020 C.2    33  GLY33       0.2638
     20  O         31.5600   -0.8150   15.2090 O.2    33  GLY33      -0.2714
     21  N         32.7780    0.1530   13.5710 N.am   34  GLU34      -0.1977
     22  CA        31.8010    1.2130   13.2840 C.3    34  GLU34       0.1602
     23  C         32.0300    1.8070   11.8920 C.2    34  GLU34       0.2287
     24  O         33.1570    1.7940   11.3860 O.2    34  GLU34      -0.2864
     25  CB        31.9210    2.3400   14.3100 C.3    34  GLU34       0.0415
     26  CG        33.1960    3.1640   14.1820 C.3    34  GLU34       0.1163
     27  CD        33.1360    4.4570   14.9680 C.2    34  GLU34       0.3649
     28  OE1       32.2260    5.2700   14.7210 O.co2  34  GLU34      -0.2457
     29  OE2       34.0040    4.6550   15.8330 O.co2  34  GLU34      -0.2457
     30  N         23.0610   -1.5030   21.9130 N.3    96  ASN96      -0.1240
     31  CA        23.8400   -2.1540   22.9640 C.3    96  ASN96       0.1653
     32  C         23.0920   -2.3140   24.2880 C.2    96  ASN96       0.2266
     33  O         23.2630   -3.3170   24.9740 O.2    96  ASN96      -0.2867
     34  CB        25.1570   -1.4130   23.1990 C.3    96  ASN96       0.1155
     35  CG        26.1870   -2.2740   23.8870 C.2    96  ASN96       0.2627
     36  OD1       26.7320   -1.9050   24.9230 O.2    96  ASN96      -0.2716
     37  ND2       26.4660   -3.4290   23.3080 N.am   96  ASN96      -0.0877
     38  N         29.6250  -11.2350   19.3110 N.3   120  PHE120     -0.1227
     39  CA        29.7980   -9.8810   19.7430 C.3   120  PHE120      0.1736
     40  C         30.1350   -9.8860   21.2330 C.2   120  PHE120      0.2595
     41  O         29.5610  -10.6450   22.0160 O.2   120  PHE120     -0.2718
     42  CB        28.5110   -9.1040   19.4660 C.3   120  PHE120      0.0547
     43  CG        28.5520   -7.6710   19.9240 C.ar  120  PHE120     -0.0202
     44  CD1       27.5190   -7.1480   20.6940 C.ar  120  PHE120     -0.0042
     45  CD2       29.6140   -6.8440   19.5820 C.ar  120  PHE120     -0.0042
     46  CE1       27.5410   -5.8230   21.1110 C.ar  120  PHE120     -0.0003
     47  CE2       29.6440   -5.5150   20.0010 C.ar  120  PHE120     -0.0003
     48  CZ        28.6090   -5.0060   20.7630 C.ar  120  PHE120     -0.0000
     49  N         31.0750   -9.0250   21.6010 N.am  121  VAL121     -0.1980
     50  CA        31.5850   -8.9260   22.9540 C.3   121  VAL121      0.1595
     51  C         30.6490   -8.5590   24.1140 C.2   121  VAL121      0.2287
     52  O         30.9770   -8.8260   25.2650 O.2   121  VAL121     -0.2864
     53  CB        32.8230   -8.0000   22.9800 C.3   121  VAL121      0.0276
     54  CG1       33.8850   -8.5190   22.0040 C.3   121  VAL121      0.0022
     55  CG2       32.4190   -6.5590   22.6250 C.3   121  VAL121      0.0022
     56  N         28.8460  -10.4280   13.7440 N.3   170  ASN170     -0.1240
     57  CA        30.0760   -9.7640   14.1010 C.3   170  ASN170      0.1653
     58  C         30.6000  -10.8210   15.0860 C.2   170  ASN170      0.2266
     59  O         29.9570  -11.0790   16.1160 O.2   170  ASN170     -0.2867
     60  CB        29.7940   -8.4490   14.8360 C.3   170  ASN170      0.1155
     61  CG        31.0530   -7.8380   15.4590 C.2   170  ASN170      0.2627
     62  OD1       32.1600   -8.2390   15.1610 O.2   170  ASN170     -0.2716
     63  ND2       30.8700   -6.8630   16.3440 N.am  170  ASN170     -0.0877
     64  N         23.1380   -5.1900   11.5780 N.3   201  TYR201     -0.1241
     65  CA        23.8670   -5.1940   10.2850 C.3   201  TYR201      0.1605
     66  C         23.0200   -5.6620    9.1050 C.2   201  TYR201      0.2264
     67  O         23.5450   -5.8410    8.0060 O.2   201  TYR201     -0.2867
     68  CB        25.1280   -6.0680   10.3430 C.3   201  TYR201      0.0534
     69  CG        26.1580   -5.6220   11.3470 C.ar  201  TYR201     -0.0201
     70  CD1       26.2750   -6.2650   12.5710 C.ar  201  TYR201     -0.0009
     71  CD2       26.9800   -4.5310   11.0920 C.ar  201  TYR201     -0.0009
     72  CE1       27.1710   -5.8400   13.5220 C.ar  201  TYR201      0.0417
     73  CE2       27.8920   -4.0940   12.0430 C.ar  201  TYR201      0.0417
     74  CZ        27.9740   -4.7520   13.2600 C.ar  201  TYR201      0.1957
     75  OH        28.8280   -4.3070   14.2410 O.3   201  TYR201     -0.2866
     76  N         24.7290    1.4500   12.5770 N.3   232  LYS232     -0.1245
     77  CA        25.3580    0.9120   11.3850 C.3   232  LYS232      0.1561
     78  C         24.6410    1.3270   10.1060 C.2   232  LYS232      0.2260
     79  O         25.2590    1.9080    9.2170 O.2   232  LYS232     -0.2867
     80  CB        25.4570   -0.6200   11.4680 C.3   232  LYS232      0.0271
     81  CG        25.9150   -1.1590   12.8240 C.3   232  LYS232      0.0035
     82  CD        27.2300   -0.5400   13.2890 C.3   232  LYS232      0.0206
     83  CE        27.7630   -1.2310   14.5440 C.3   232  LYS232      0.1093
     84  NZ        26.8640   -1.0840   15.7210 N.3   232  LYS232     -0.1314
     85  N         32.8360   -7.0760    8.6000 N.3   319  TYR319     -0.1241
     86  CA        33.9450   -7.7720    9.2500 C.3   319  TYR319      0.1605
     87  C         34.3220   -9.0200    8.4740 C.2   319  TYR319      0.2264
     88  O         33.4820   -9.6580    7.8320 O.2   319  TYR319     -0.2867
     89  CB        33.5930   -8.2170   10.6730 C.3   319  TYR319      0.0534
     90  CG        33.0530   -7.1240   11.5530 C.ar  319  TYR319     -0.0201
     91  CD1       33.9000   -6.1610   12.0940 C.ar  319  TYR319     -0.0009
     92  CD2       31.6910   -7.0430   11.8330 C.ar  319  TYR319     -0.0009
     93  CE1       33.4080   -5.1460   12.8910 C.ar  319  TYR319      0.0417
     94  CE2       31.1900   -6.0310   12.6220 C.ar  319  TYR319      0.0417
     95  CZ        32.0530   -5.0890   13.1480 C.ar  319  TYR319      0.1957
     96  OH        31.5650   -4.0850   13.9340 O.3   319  TYR319     -0.2866
     97  N         36.1750  -12.7910   20.9730 N.3   352  PHE352     -0.1241
     98  CA        34.8100  -13.1290   20.6250 C.3   352  PHE352      0.1605
     99  C         34.4060  -14.5190   21.1020 C.2   352  PHE352      0.2264
    100  O         33.4350  -15.0960   20.6100 O.2   352  PHE352     -0.2867
    101  CB        34.6790  -13.0060   19.1070 C.3   352  PHE352      0.0534
    102  CG        35.0880  -11.6640   18.5800 C.ar  352  PHE352     -0.0203
    103  CD1       34.2180  -10.5770   18.6530 C.ar  352  PHE352     -0.0042
    104  CD2       36.3630  -11.4750   18.0420 C.ar  352  PHE352     -0.0042
    105  CE1       34.6050   -9.3260   18.2040 C.ar  352  PHE352     -0.0003
    106  CE2       36.7670  -10.2220   17.5860 C.ar  352  PHE352     -0.0003
    107  CZ        35.8880   -9.1450   17.6680 C.ar  352  PHE352     -0.0000
    108  N         39.7850  -10.8580   13.8350 N.3   361  ARG361     -0.1245
    109  CA        38.7550  -10.0590   13.1950 C.3   361  ARG361      0.1563
    110  C         39.3550   -8.8090   12.5760 C.2   361  ARG361      0.2260
    111  O         40.1680   -8.1150   13.1980 O.2   361  ARG361     -0.2867
    112  CB        37.6090   -9.6150   14.1170 C.3   361  ARG361      0.0307
    113  CG        36.4360   -8.9560   13.3670 C.3   361  ARG361      0.0489
    114  CD        35.4800   -8.2280   14.2980 C.3   361  ARG361      0.2205
    115  NE        36.0180   -6.9470   14.7460 N.pl3 361  ARG361     -0.0865
    116  CZ        35.4180   -6.1430   15.6200 C.cat 361  ARG361      0.5346
    117  NH1       34.2500   -6.4830   16.1510 N.pl3 361  ARG361      0.1354
    118  NH2       35.9860   -4.9970   15.9710 N.pl3 361  ARG361      0.1354
@<TRIPOS>BOND
     1    88    87    2
     2    67    66    2
     3    87    86    1
     4    85    86    1
     5    66    65    1
     6    79    78    2
     7    86    89    1
     8    78    77    1
     9    65    68    1
    10    65    64    1
    11    68    69    1
    12    89    90    1
    13    71    69   ar
    14    71    73   ar
    15    69    70   ar
    16    77    80    1
    17    77    76    1
    18    24    23    2
    19    80    81    1
    20    90    92   ar
    21    90    91   ar
    22    92    94   ar
    23    23    22    1
    24    73    74   ar
    25    91    93   ar
    26    16    14    1
    27    70    72   ar
    28   110   109    1
    29   110   111    2
    30    94    95   ar
    31    81    82    1
    32    93    95   ar
    33    12    11    2
    34    95    96    1
    35   109   108    1
    36   109   112    1
    37    74    72   ar
    38    74    75    1
    39    22    21    1
    40    22    25    1
    41    82    83    1
    42   113   112    1
    43   113   114    1
    44    21    19   am
    45    56    57    1
    46    14    13    1
    47    57    60    1
    48    57    58    1
    49    13    10    1
    50    13    15    1
    51    26    25    1
    52    26    27    1
    53    11    10    1
    54    11    17   am
    55   114   115    1
    56     9    10    1
    57    19    18    1
    58    19    20    2
    59    83    84    1
    60    18    17    1
    61    28    27   ar
    62   115   116    2
    63    60    61    1
    64    27    29   ar
    65    58    59    2
    66    62    61    2
    67    61    63   am
    68   116   118    1
    69   116   117    1
    70   106   107   ar
    71   106   104   ar
    72   107   105   ar
    73   104   102   ar
    74   105   103   ar
    75   102   103   ar
    76   102   101    1
    77   101    98    1
    78    38    39    1
    79    42    39    1
    80    42    43    1
    81    45    43   ar
    82    45    47   ar
    83    39    40    1
    84    43    44   ar
    85    47    48   ar
    86   100    99    2
    87    98    97    1
    88    98    99    1
    89     8     6    1
    90    44    46   ar
    91    48    46   ar
    92     7     5    1
    93    40    49   am
    94    40    41    2
    95     6     5    1
    96    49    50    1
    97     5     2    1
    98    30    31    1
    99    54    53    1
   100     4     3    2
   101     2     3    1
   102     2     1    1
   103    55    53    1
   104    50    53    1
   105    50    51    1
   106    31    34    1
   107    31    32    1
   108    34    35    1
   109    37    35   am
   110    35    36    2
   111    51    52    2
   112    32    33    2
