@<TRIPOS>MOLECULE
tmp/1gdkA01.pdb
 90 88 0 0 0
SMALL
GASTEIGER

@<TRIPOS>ATOM
      1  N         49.7520  -33.8440   22.3710 N.3    29  PHE29      -0.1227
      2  CA        48.7310  -33.8610   23.4000 C.3    29  PHE29       0.1736
      3  C         47.4320  -34.5660   22.9950 C.2    29  PHE29       0.2592
      4  O         46.9360  -35.4900   23.7640 O.2    29  PHE29      -0.2718
      5  CB        48.4880  -32.3730   23.8810 C.3    29  PHE29       0.0547
      6  CG        47.3670  -32.3680   24.8630 C.ar   29  PHE29      -0.0202
      7  CD1       47.3620  -33.1530   25.9890 C.ar   29  PHE29      -0.0042
      8  CD2       46.1470  -31.7480   24.4590 C.ar   29  PHE29      -0.0042
      9  CE1       46.2120  -33.2740   26.7600 C.ar   29  PHE29      -0.0003
     10  CE2       45.0270  -31.7890   25.2970 C.ar   29  PHE29      -0.0003
     11  CZ        45.0930  -32.5190   26.5340 C.ar   29  PHE29      -0.0000
     12  N         46.9170  -34.3570   21.8330 N.am   30  PHE30      -0.2029
     13  CA        45.7470  -34.9990   21.2530 C.3    30  PHE30       0.1325
     14  C         46.0330  -36.4410   20.8710 C.3    30  PHE30       0.2039
     15  O         45.0930  -37.2130   21.1140 O.3    30  PHE30      -0.2185
     16  CB        45.1670  -34.2460   20.0290 C.3    30  PHE30       0.0507
     17  CG        44.0620  -33.3990   20.5350 C.ar   30  PHE30      -0.0204
     18  CD1       42.9610  -34.0720   21.0830 C.ar   30  PHE30      -0.0042
     19  CD2       44.2420  -32.0220   20.6840 C.ar   30  PHE30      -0.0042
     20  CE1       41.9670  -33.3170   21.7130 C.ar   30  PHE30      -0.0003
     21  CE2       43.2130  -31.2600   21.2110 C.ar   30  PHE30      -0.0003
     22  CZ        42.0930  -31.9370   21.6990 C.ar   30  PHE30      -0.0000
     23  N         45.7930  -38.1760   24.0780 N.3    33  VAL33      -0.1245
     24  CA        44.3860  -38.3620   24.5100 C.3    33  VAL33       0.1561
     25  C         43.7830  -39.6100   23.8170 C.2    33  VAL33       0.2260
     26  O         43.0250  -40.3380   24.4850 O.2    33  VAL33      -0.2867
     27  CB        43.4920  -37.1360   24.2870 C.3    33  VAL33       0.0252
     28  CG1       41.9820  -37.4360   24.5340 C.3    33  VAL33       0.0019
     29  CG2       43.8390  -35.8990   25.1110 C.3    33  VAL33       0.0019
     30  N         35.1980  -34.4650   20.0650 N.3    44  PHE44      -0.1241
     31  CA        35.9290  -33.3720   19.4430 C.3    44  PHE44       0.1605
     32  C         35.3820  -33.0370   18.0750 C.2    44  PHE44       0.2264
     33  O         35.4970  -33.8940   17.1840 O.2    44  PHE44      -0.2867
     34  CB        37.4590  -33.7540   19.4100 C.3    44  PHE44       0.0534
     35  CG        37.9690  -33.5640   20.8250 C.ar   44  PHE44      -0.0203
     36  CD1       38.0450  -32.2440   21.2840 C.ar   44  PHE44      -0.0042
     37  CD2       38.0810  -34.6090   21.6980 C.ar   44  PHE44      -0.0042
     38  CE1       38.2850  -31.9830   22.6550 C.ar   44  PHE44      -0.0003
     39  CE2       38.4170  -34.3900   23.0420 C.ar   44  PHE44      -0.0003
     40  CZ        38.5180  -33.0510   23.4880 C.ar   44  PHE44      -0.0000
     41  N         36.6670  -31.2940   15.7310 N.3    46  PHE46      -0.1241
     42  CA        37.7210  -31.1790   14.7010 C.3    46  PHE46       0.1605
     43  C         38.6080  -32.4120   14.5940 C.2    46  PHE46       0.2264
     44  O         39.6730  -32.3350   13.9070 O.2    46  PHE46      -0.2867
     45  CB        38.5020  -29.8610   14.9810 C.3    46  PHE46       0.0534
     46  CG        38.9690  -29.6990   16.4260 C.ar   46  PHE46      -0.0203
     47  CD1       39.9640  -30.5210   16.9350 C.ar   46  PHE46      -0.0042
     48  CD2       38.4040  -28.7160   17.2290 C.ar   46  PHE46      -0.0042
     49  CE1       40.3340  -30.3940   18.2910 C.ar   46  PHE46      -0.0003
     50  CE2       38.8000  -28.5380   18.5300 C.ar   46  PHE46      -0.0003
     51  CZ        39.8240  -29.3360   19.0320 C.ar   46  PHE46      -0.0000
     52  N         42.5810  -24.2310   21.3380 N.3    63  HIS63      -0.1226
     53  CA        41.8990  -24.9720   22.3580 C.3    63  HIS63       0.1752
     54  C         42.9080  -25.7580   23.2150 C.2    63  HIS63       0.2595
     55  O         42.8800  -25.5450   24.4140 O.2    63  HIS63      -0.2718
     56  CB        40.7990  -25.8970   21.7470 C.3    63  HIS63       0.0759
     57  CG        39.6620  -25.1540   21.1020 C.ar   63  HIS63       0.0818
     58  ND1       38.3960  -25.7050   20.9110 N.ar   63  HIS63      -0.2268
     59  CD2       39.5900  -23.9250   20.5570 C.ar   63  HIS63       0.1154
     60  CE1       37.6230  -24.8850   20.2420 C.ar   63  HIS63       0.1986
     61  NE2       38.2990  -23.7880   20.0100 N.ar   63  HIS63      -0.2212
     62  N         43.8900  -26.4500   22.6730 N.am   64  ALA64      -0.1980
     63  CA        44.8210  -27.2570   23.5590 C.3    64  ALA64       0.1597
     64  C         45.8050  -26.3680   24.2460 C.2    64  ALA64       0.2287
     65  O         46.2190  -26.5360   25.4010 O.2    64  ALA64      -0.2864
     66  CB        45.3750  -28.3250   22.6720 C.3    64  ALA64       0.0319
     67  N         43.8750  -25.0070   27.2350 N.3    67  VAL67      -0.1245
     68  CA        43.7170  -25.9670   28.3410 C.3    67  VAL67       0.1561
     69  C         44.8830  -25.9050   29.3400 C.2    67  VAL67       0.2260
     70  O         44.6510  -26.0230   30.5510 O.2    67  VAL67      -0.2867
     71  CB        43.5580  -27.4040   27.7760 C.3    67  VAL67       0.0252
     72  CG1       43.7050  -28.4580   28.8570 C.3    67  VAL67       0.0019
     73  CG2       42.2720  -27.5120   26.9570 C.3    67  VAL67       0.0019
     74  N         31.1050  -27.8710   29.0640 N.3    97  HIS97      -0.1241
     75  CA        31.4050  -29.3360   29.0830 C.3    97  HIS97       0.1621
     76  C         30.1400  -30.1480   29.2580 C.2    97  HIS97       0.2264
     77  O         30.0860  -31.2530   28.6840 O.2    97  HIS97      -0.2867
     78  CB        32.4380  -29.7620   30.1490 C.3    97  HIS97       0.0745
     79  CG        33.8420  -29.3410   29.7510 C.ar   97  HIS97       0.0817
     80  ND1       34.3640  -28.0930   30.0280 N.ar   97  HIS97      -0.2268
     81  CD2       34.7210  -29.9530   28.9700 C.ar   97  HIS97       0.1154
     82  CE1       35.5180  -27.9880   29.4460 C.ar   97  HIS97       0.1986
     83  NE2       35.8420  -29.1210   28.8340 N.ar   97  HIS97      -0.2212
     84  N         42.2040  -36.8390   30.3400 N.3   110  VAL110     -0.1245
     85  CA        42.8660  -35.6060   29.9570 C.3   110  VAL110      0.1561
     86  C         43.9850  -35.2780   30.9630 C.2   110  VAL110      0.2260
     87  O         45.0420  -34.7500   30.5660 O.2   110  VAL110     -0.2867
     88  CB        41.8370  -34.5070   29.7440 C.3   110  VAL110      0.0252
     89  CG1       42.4310  -33.1460   29.4190 C.3   110  VAL110      0.0019
     90  CG2       40.8330  -34.9420   28.6530 C.3   110  VAL110      0.0019
@<TRIPOS>BOND
     1    44    43    2
     2    43    42    1
     3    42    45    1
     4    42    41    1
     5    45    46    1
     6    46    47   ar
     7    46    48   ar
     8    47    49   ar
     9    33    32    2
    10    48    50   ar
    11    32    31    1
    12    49    51   ar
    13    50    51   ar
    14    34    31    1
    15    34    35    1
    16    31    30    1
    17    61    60   ar
    18    61    59   ar
    19    16    17    1
    20    16    13    1
    21    60    58   ar
    22    17    19   ar
    23    17    18   ar
    24    59    57   ar
    25    19    21   ar
    26    35    36   ar
    27    35    37   ar
    28    14    15    1
    29    14    13    1
    30    58    57   ar
    31    18    20   ar
    32    57    56    1
    33    21    22   ar
    34    13    12    1
    35    36    38   ar
    36    52    53    1
    37    37    39   ar
    38    22    20   ar
    39    56    53    1
    40    12     3   am
    41    53    54    1
    42     1     2    1
    43    38    40   ar
    44    66    63    1
    45    62    54   am
    46    62    63    1
    47     3     2    1
    48     3     4    2
    49    39    40   ar
    50    54    55    2
    51     2     5    1
    52    63    64    1
    53    25    26    2
    54    25    24    1
    55     5     6    1
    56    23    24    1
    57    64    65    2
    58    27    24    1
    59    27    28    1
    60    27    29    1
    61     8     6   ar
    62     8    10   ar
    63     6     7   ar
    64    10    11   ar
    65     7     9   ar
    66    11     9   ar
    67    73    71    1
    68    67    68    1
    69    71    68    1
    70    71    72    1
    71    68    69    1
    72    90    88    1
    73    77    76    2
    74    83    81   ar
    75    83    82   ar
    76    81    79   ar
    77    74    75    1
    78    75    76    1
    79    75    78    1
    80    69    70    2
    81    89    88    1
    82    82    80   ar
    83    88    85    1
    84    79    80   ar
    85    79    78    1
    86    85    84    1
    87    85    86    1
    88    87    86    2
