@<TRIPOS>MOLECULE
tmp/1gdvA00.pdb
 224 212 0 0 0
SMALL
GASTEIGER

@<TRIPOS>ATOM
      1  N         28.8680   13.7320   37.1660 N.3     9  VAL9       -0.1231
      2  CA        28.6820   14.4920   35.9340 C.3     9  VAL9        0.1692
      3  C         29.8800   14.2440   35.0280 C.2     9  VAL9        0.2592
      4  O         29.7140   14.0330   33.8240 O.2     9  VAL9       -0.2718
      5  CB        28.5630   16.0070   36.2280 C.3     9  VAL9        0.0266
      6  CG1       28.6680   16.8170   34.9400 C.3     9  VAL9        0.0020
      7  CG2       27.2310   16.2800   36.9050 C.3     9  VAL9        0.0020
      8  N         31.0710   14.2650   35.6300 N.am   10  PHE10      -0.1976
      9  CA        32.3170   14.0520   34.9020 C.3    10  PHE10       0.1639
     10  C         32.3250   12.6700   34.2550 C.2    10  PHE10       0.2290
     11  O         32.6820   12.5130   33.0840 O.2    10  PHE10      -0.2864
     12  CB        33.5220   14.1750   35.8340 C.3    10  PHE10       0.0560
     13  CG        34.8440   14.1400   35.1140 C.ar   10  PHE10      -0.0200
     14  CD1       35.3790   15.2960   34.5670 C.ar   10  PHE10      -0.0042
     15  CD2       35.5350   12.9510   34.9610 C.ar   10  PHE10      -0.0042
     16  CE1       36.5890   15.2650   33.8700 C.ar   10  PHE10      -0.0003
     17  CE2       36.7400   12.9070   34.2710 C.ar   10  PHE10      -0.0003
     18  CZ        37.2620   14.0680   33.7260 C.ar   10  PHE10      -0.0000
     19  N         29.7270   12.4650   31.4610 N.3    13  ASN13      -0.1225
     20  CA        29.8460   13.4150   30.3690 C.3    13  ASN13       0.1785
     21  C         31.2180   13.7530   29.8450 C.2    13  ASN13       0.2597
     22  O         31.3400   14.2490   28.7120 O.2    13  ASN13      -0.2718
     23  CB        29.2100   14.7400   30.7700 C.3    13  ASN13       0.1169
     24  CG        27.7380   14.6230   31.0550 C.2    13  ASN13       0.2627
     25  OD1       26.9260   14.7720   30.1490 O.2    13  ASN13      -0.2716
     26  ND2       27.3770   14.3650   32.3210 N.am   13  ASN13      -0.0877
     27  N         32.2370   13.5110   30.6650 N.am   14  CYS14      -0.1970
     28  CA        33.6030   13.9100   30.3190 C.3    14  CYS14       0.1712
     29  C         34.6320   12.8210   30.1510 C.2    14  CYS14       0.2296
     30  O         35.6480   13.0180   29.4830 O.2    14  CYS14      -0.2864
     31  CB        34.1420   14.8820   31.3840 C.3    14  CYS14       0.0983
     32  SG        32.9590   16.1390   31.9440 S.3    14  CYS14      -0.0798
     33  N         34.5560   10.2140   28.4590 N.3    16  ALA16      -0.1231
     34  CA        34.6910    9.7380   27.0820 C.3    16  ALA16       0.1694
     35  C         35.9700   10.3220   26.4440 C.2    16  ALA16       0.2592
     36  O         36.5800    9.6920   25.5780 O.2    16  ALA16      -0.2718
     37  CB        33.4740   10.1390   26.2660 C.3    16  ALA16       0.0304
     38  N         36.3900   11.5110   26.8800 N.am   17  CYS17      -0.1956
     39  CA        37.5930   12.1060   26.3080 C.3    17  CYS17       0.1843
     40  C         38.6720   12.5090   27.2920 C.2    17  CYS17       0.2625
     41  O         39.7990   12.7780   26.8780 O.2    17  CYS17      -0.2714
     42  CB        37.2310   13.3440   25.4800 C.3    17  CYS17       0.0997
     43  SG        35.9770   13.0580   24.1930 S.3    17  CYS17      -0.0797
     44  N         38.3340   12.5660   28.5800 N.am   18  HIS18      -0.1973
     45  CA        39.2790   13.0250   29.6010 C.3    18  HIS18       0.1656
     46  C         39.4660   12.1100   30.8060 C.2    18  HIS18       0.2291
     47  O         39.9100   12.5640   31.8600 O.2    18  HIS18      -0.2864
     48  CB        38.8230   14.4030   30.1220 C.3    18  HIS18       0.0771
     49  CG        38.7990   15.5270   29.1070 C.ar   18  HIS18       0.0820
     50  ND1       39.8950   16.0770   28.5160 N.ar   18  HIS18      -0.2267
     51  CD2       37.6050   16.1420   28.7300 C.ar   18  HIS18       0.1154
     52  CE1       39.4140   17.0750   27.8190 C.ar   18  HIS18       0.1986
     53  NE2       38.1170   17.1870   27.9550 N.ar   18  HIS18      -0.2212
     54  N         43.5140   13.6620   27.5040 N.3    23  ASN23      -0.1240
     55  CA        42.7380   14.1710   26.3640 C.3    23  ASN23       0.1653
     56  C         42.9590   13.1590   25.2250 C.2    23  ASN23       0.2266
     57  O         44.0400   13.0630   24.6450 O.2    23  ASN23      -0.2867
     58  CB        43.1710   15.5670   25.9400 C.3    23  ASN23       0.1155
     59  CG        42.1710   16.1760   24.9610 C.2    23  ASN23       0.2627
     60  OD1       41.7470   15.5000   24.0310 O.2    23  ASN23      -0.2716
     61  ND2       41.7690   17.4250   25.1830 N.am   23  ASN23      -0.0877
     62  N         41.8860   13.0650   22.2600 N.3    25  ILE25      -0.1231
     63  CA        41.9330   13.6040   20.9010 C.3    25  ILE25       0.1692
     64  C         43.1560   14.4770   20.6230 C.2    25  ILE25       0.2591
     65  O         43.8430   14.3010   19.6060 O.2    25  ILE25      -0.2718
     66  CB        40.6020   14.4090   20.6430 C.3    25  ILE25       0.0266
     67  CG1       39.4060   13.4770   20.8560 C.3    25  ILE25       0.0019
     68  CG2       40.5640   15.0000   19.2300 C.3    25  ILE25       0.0020
     69  CD1       38.0950   14.1660   20.8140 C.3    25  ILE25       0.0001
     70  N         43.4100   15.4350   21.5190 N.am   26  MET26      -0.1979
     71  CA        44.5500   16.3750   21.4230 C.3    26  MET26       0.1605
     72  C         45.3070   16.1630   22.7050 C.2    26  MET26       0.2287
     73  O         45.0230   16.8160   23.7140 O.2    26  MET26      -0.2864
     74  CB        44.0850   17.8340   21.3880 C.3    26  MET26       0.0413
     75  CG        43.1760   18.1580   20.2720 C.3    26  MET26       0.0598
     76  SD        42.9670   19.9280   20.2020 S.3    26  MET26      -0.1393
     77  CE        42.4690   20.0800   18.4600 C.3    26  MET26       0.0692
     78  N         46.1400   18.9620   25.3510 N.3    29  LYS29      -0.1231
     79  CA        45.1640   19.7190   26.1030 C.3    29  LYS29       0.1693
     80  C         44.5560   18.8840   27.2170 C.2    29  LYS29       0.2593
     81  O         43.3450   18.6730   27.2850 O.2    29  LYS29      -0.2718
     82  CB        44.0890   20.2210   25.1470 C.3    29  LYS29       0.0285
     83  CG        44.6670   21.0280   24.0180 C.3    29  LYS29       0.0035
     84  CD        45.3070   22.2540   24.5850 C.3    29  LYS29       0.0206
     85  CE        44.4810   23.4530   24.2370 C.3    29  LYS29       0.1093
     86  NZ        44.9760   23.9930   22.9430 N.3    29  LYS29      -0.1314
     87  N         45.4070   18.4340   28.1200 N.am   30  THR30      -0.1939
     88  CA        44.9450   17.6000   29.2070 C.3    30  THR30       0.2028
     89  C         44.3810   18.4070   30.3660 C.2    30  THR30       0.2642
     90  O         44.3200   19.6340   30.3120 O.2    30  THR30      -0.2714
     91  CB        46.0740   16.7540   29.7000 C.3    30  THR30       0.1808
     92  OG1       47.0790   17.6190   30.2560 O.3    30  THR30      -0.2208
     93  CG2       46.6360   15.9280   28.5280 C.3    30  THR30       0.0379
     94  N         43.9680   17.7050   31.4130 N.am   31  LEU31      -0.1977
     95  CA        43.3860   18.3390   32.5920 C.3    31  LEU31       0.1596
     96  C         44.3920   18.3590   33.7710 C.2    31  LEU31       0.2287
     97  O         44.0020   18.5020   34.9330 O.2    31  LEU31      -0.2864
     98  CB        42.1100   17.5890   32.9870 C.3    31  LEU31       0.0297
     99  CG        40.7780   17.9580   32.3350 C.3    31  LEU31       0.0022
    100  CD1       40.9480   18.5180   30.9230 C.3    31  LEU31       0.0001
    101  CD2       39.8740   16.7740   32.3940 C.3    31  LEU31       0.0001
    102  N         49.2880   22.0580   32.8430 N.3    35  VAL35      -0.1231
    103  CA        48.7610   22.3960   31.5260 C.3    35  VAL35       0.1692
    104  C         47.5940   23.3440   31.6950 C.2    35  VAL35       0.2591
    105  O         47.4260   24.2950   30.9360 O.2    35  VAL35      -0.2718
    106  CB        48.3130   21.1290   30.7690 C.3    35  VAL35       0.0266
    107  CG1       47.6850   21.4840   29.4250 C.3    35  VAL35       0.0020
    108  CG2       49.5310   20.2200   30.5800 C.3    35  VAL35       0.0020
    109  N         46.7820   23.0810   32.7030 N.am   36  LEU36      -0.1980
    110  CA        45.6510   23.9430   32.9750 C.3    36  LEU36       0.1596
    111  C         46.2090   25.3450   33.2960 C.2    36  LEU36       0.2287
    112  O         45.6800   26.3360   32.7830 O.2    36  LEU36      -0.2864
    113  CB        44.8350   23.3750   34.1400 C.3    36  LEU36       0.0297
    114  CG        43.4810   22.6750   33.8990 C.3    36  LEU36       0.0022
    115  CD1       43.3360   22.2160   32.4860 C.3    36  LEU36       0.0001
    116  CD2       43.3130   21.5400   34.8740 C.3    36  LEU36       0.0001
    117  N         47.4460   27.1070   30.1520 N.3    39  ASN39      -0.1240
    118  CA        46.3860   27.5360   29.2630 C.3    39  ASN39       0.1653
    119  C         45.3690   28.4700   29.9000 C.2    39  ASN39       0.2266
    120  O         44.3010   28.6730   29.3300 O.2    39  ASN39      -0.2867
    121  CB        45.6290   26.3250   28.7390 C.3    39  ASN39       0.1155
    122  CG        46.4010   25.5770   27.6970 C.2    39  ASN39       0.2627
    123  OD1       47.0670   26.1920   26.8720 O.2    39  ASN39      -0.2716
    124  ND2       46.3220   24.2430   27.7180 N.am   39  ASN39      -0.0877
    125  N         43.3830   28.0030   32.2650 N.3    41  MET41      -0.1245
    126  CA        42.1300   27.2670   32.4530 C.3    41  MET41       0.1570
    127  C         42.0670   26.7260   33.8710 C.2    41  MET41       0.2261
    128  O         41.4510   25.6840   34.1300 O.2    41  MET41      -0.2867
    129  CB        42.0400   26.0880   31.4580 C.3    41  MET41       0.0387
    130  CG        41.8930   26.5090   29.9960 C.3    41  MET41       0.0595
    131  SD        40.3060   27.2930   29.6700 S.3    41  MET41      -0.1393
    132  CE        39.2710   26.2580   30.4890 C.3    41  MET41       0.0692
    133  N         36.7750   27.5300   33.1580 N.3    47  ILE47      -0.1245
    134  CA        36.3400   26.1630   32.8830 C.3    47  ILE47       0.1561
    135  C         34.8200   26.0740   32.6830 C.2    47  ILE47       0.2260
    136  O         34.3590   25.4150   31.7520 O.2    47  ILE47      -0.2867
    137  CB        36.7770   25.2050   34.0130 C.3    47  ILE47       0.0252
    138  CG1       38.2990   25.1590   34.0660 C.3    47  ILE47       0.0019
    139  CG2       36.2100   23.7960   33.7730 C.3    47  ILE47       0.0019
    140  CD1       38.8110   24.2910   35.1610 C.3    47  ILE47       0.0001
    141  N         34.0520   27.1620   29.1250 N.3    50  GLN50      -0.1231
    142  CA        34.4460   26.1960   28.1060 C.3    50  GLN50       0.1698
    143  C         33.4750   25.0100   28.0590 C.2    50  GLN50       0.2592
    144  O         33.1470   24.5040   26.9680 O.2    50  GLN50      -0.2718
    145  CB        35.8680   25.7100   28.3670 C.3    50  GLN50       0.0381
    146  CG        36.2940   24.5340   27.4960 C.3    50  GLN50       0.0905
    147  CD        37.5340   24.8270   26.6730 C.2    50  GLN50       0.2608
    148  OE1       38.1300   23.9250   26.0680 O.2    50  GLN50      -0.2717
    149  NE2       37.9250   26.0780   26.6390 N.am   50  GLN50      -0.0878
    150  N         33.0160   24.5680   29.2300 N.am   51  VAL51      -0.1980
    151  CA        32.0830   23.4750   29.2930 C.3    51  VAL51       0.1595
    152  C         30.7460   23.9230   28.7040 C.2    51  VAL51       0.2287
    153  O         30.1370   23.2000   27.9190 O.2    51  VAL51      -0.2864
    154  CB        31.8730   23.0170   30.7370 C.3    51  VAL51       0.0276
    155  CG1       30.6970   22.0550   30.8170 C.3    51  VAL51       0.0022
    156  CG2       33.1580   22.3730   31.2570 C.3    51  VAL51       0.0022
    157  N         34.3440   23.9070   22.5400 N.3    55  LYS55      -0.1231
    158  CA        35.4720   24.4770   21.8290 C.3    55  LYS55       0.1693
    159  C         36.0220   23.4430   20.8520 C.2    55  LYS55       0.2592
    160  O         36.5100   22.3850   21.2590 O.2    55  LYS55      -0.2718
    161  CB        36.5660   24.8940   22.8110 C.3    55  LYS55       0.0285
    162  CG        37.7420   25.5740   22.1390 C.3    55  LYS55       0.0035
    163  CD        38.0560   26.8700   22.8250 C.3    55  LYS55       0.0206
    164  CE        39.4350   27.3880   22.4320 C.3    55  LYS55       0.1093
    165  NZ        40.5460   26.9230   23.3410 N.3    55  LYS55      -0.1314
    166  N         35.9480   23.7460   19.5650 N.am   56  ASN56      -0.1960
    167  CA        36.4310   22.8260   18.5320 C.3    56  ASN56       0.1819
    168  C         35.8040   21.4200   18.6510 C.2    56  ASN56       0.2621
    169  O         34.5910   21.2940   18.5550 O.2    56  ASN56      -0.2715
    170  CB        37.9590   22.7390   18.5720 C.3    56  ASN56       0.1195
    171  CG        38.5570   22.2630   17.2340 C.2    56  ASN56       0.2630
    172  OD1       37.9700   22.4990   16.1650 O.2    56  ASN56      -0.2716
    173  ND2       39.7280   21.5920   17.2890 N.am   56  ASN56      -0.0877
    174  N         36.6110   20.3740   18.8530 N.am   57  ALA57      -0.1963
    175  CA        36.0840   19.0150   18.9660 C.3    57  ALA57       0.1728
    176  C         35.4240   18.7340   20.3160 C.2    57  ALA57       0.2616
    177  O         34.8240   17.6880   20.5020 O.2    57  ALA57      -0.2715
    178  CB        37.1790   17.9830   18.6890 C.3    57  ALA57       0.0334
    179  N         35.5260   19.6600   21.2680 N.am   58  MET58      -0.1964
    180  CA        34.8580   19.4490   22.5490 C.3    58  MET58       0.1722
    181  C         33.4360   19.9940   22.4290 C.2    58  MET58       0.2458
    182  O         33.2370   21.1610   22.0400 O.2    58  MET58      -0.2730
    183  CB        35.5500   20.2030   23.6790 C.3    58  MET58       0.0427
    184  CG        34.7530   20.1500   24.9790 C.3    58  MET58       0.0599
    185  SD        35.7690   20.5850   26.3860 S.3    58  MET58      -0.1393
    186  CE        34.5400   21.0220   27.5830 C.3    58  MET58       0.0692
    187  N         32.4260   19.1730   22.7530 N.am   59  PRO59      -0.2727
    188  CA        31.0370   19.6340   22.6650 C.3    59  PRO59       0.1402
    189  C         30.6810   20.7020   23.6960 C.2    59  PRO59       0.2269
    190  O         31.3490   20.8340   24.7100 O.2    59  PRO59      -0.2865
    191  CB        30.2000   18.3640   22.8950 C.3    59  PRO59       0.0296
    192  CG        31.1100   17.3700   23.5000 C.3    59  PRO59       0.0237
    193  CD        32.5330   17.7650   23.1830 C.3    59  PRO59       0.0939
    194  N         28.0210   22.0180   26.4710 N.3    61  PHE61      -0.1241
    195  CA        27.0890   21.3150   27.3310 C.3    61  PHE61       0.1605
    196  C         26.0370   22.2400   27.9300 C.2    61  PHE61       0.2264
    197  O         25.2110   21.8010   28.7320 O.2    61  PHE61      -0.2867
    198  CB        27.8400   20.6220   28.4680 C.3    61  PHE61       0.0534
    199  CG        28.7310   19.4930   28.0160 C.ar   61  PHE61      -0.0203
    200  CD1       30.0070   19.7470   27.5230 C.ar   61  PHE61      -0.0042
    201  CD2       28.2960   18.1710   28.0950 C.ar   61  PHE61      -0.0042
    202  CE1       30.8370   18.7100   27.1160 C.ar   61  PHE61      -0.0003
    203  CE2       29.1290   17.1320   27.6880 C.ar   61  PHE61      -0.0003
    204  CZ        30.4090   17.4150   27.1940 C.ar   61  PHE61      -0.0000
    205  N         23.5270   20.2070   30.1780 N.3    65  LEU65      -0.1245
    206  CA        23.7540   20.1580   31.6120 C.3    65  LEU65       0.1561
    207  C         23.1850   21.3900   32.3070 C.2    65  LEU65       0.2260
    208  O         23.3300   22.5360   31.8330 O.2    65  LEU65      -0.2867
    209  CB        25.2450   20.0280   31.9260 C.3    65  LEU65       0.0270
    210  CG        25.7300   18.6420   32.3600 C.3    65  LEU65       0.0019
    211  CD1       24.9360   17.5730   31.6230 C.3    65  LEU65       0.0001
    212  CD2       27.2220   18.5170   32.0920 C.3    65  LEU65       0.0001
    213  N         31.0960   20.0360   38.1560 N.3    73  ALA73      -0.1245
    214  CA        32.0800   19.3530   37.3100 C.3    73  ALA73       0.1562
    215  C         33.3510   20.1950   37.2400 C.2    73  ALA73       0.2260
    216  O         34.4560   19.6540   37.3650 O.2    73  ALA73      -0.2867
    217  CB        31.5220   19.0850   35.8980 C.3    73  ALA73       0.0290
    218  N         37.0720   18.8950   38.4470 N.3    77  VAL77      -0.1245
    219  CA        38.2720   18.9300   37.6230 C.3    77  VAL77       0.1561
    220  C         39.4090   19.6610   38.3220 C.2    77  VAL77       0.2260
    221  O         40.5710   19.2430   38.2550 O.2    77  VAL77      -0.2867
    222  CB        37.9780   19.6290   36.2770 C.3    77  VAL77       0.0252
    223  CG1       39.2800   19.9090   35.5480 C.3    77  VAL77       0.0019
    224  CG2       37.0080   18.7480   35.4290 C.3    77  VAL77       0.0019
@<TRIPOS>BOND
     1   172   171    2
     2   171   173   am
     3   171   170    1
     4    77    76    1
     5   167   170    1
     6   167   168    1
     7   167   166    1
     8   169   168    2
     9   168   174   am
    10   178   175    1
    11   174   175    1
    12   175   176    1
    13    68    66    1
    14   166   159   am
    15    65    64    2
    16    76    75    1
    17    75    74    1
    18   176   177    2
    19   176   179   am
    20    64    63    1
    21    64    70   am
    22    66    67    1
    23    66    63    1
    24    69    67    1
    25   159   160    2
    26   159   158    1
    27    63    62    1
    28   179   180    1
    29    74    71    1
    30    71    70    1
    31    71    72    1
    32   158   157    1
    33   158   161    1
    34   182   181    2
    35   162   161    1
    36   162   163    1
    37   181   180    1
    38   181   187   am
    39   164   163    1
    40   164   165    1
    41   180   183    1
    42   188   187    1
    43   188   191    1
    44   188   189    1
    45    72    73    2
    46   187   193    1
    47   191   192    1
    48    86    85    1
    49   193   192    1
    50   183   184    1
    51   189   190    2
    52    83    84    1
    53    83    82    1
    54    60    59    2
    55    43    42    1
    56    85    84    1
    57    57    56    2
    58    59    61   am
    59    59    58    1
    60   184   185    1
    61    82    79    1
    62    56    55    1
    63    78    79    1
    64    42    39    1
    65    36    35    2
    66    58    55    1
    67   148   147    2
    68    79    80    1
    69    37    34    1
    70    39    38    1
    71    39    40    1
    72    55    54    1
    73   185   186    1
    74    35    38   am
    75    35    34    1
    76   194   195    1
    77   149   147   am
    78   147   146    1
    79   123   122    2
    80    41    40    2
    81   144   143    2
    82    34    33    1
    83   202   204   ar
    84   202   200   ar
    85   204   203   ar
    86    80    81    2
    87    80    87   am
    88    40    44   am
    89   195   196    1
    90   195   198    1
    91   146   145    1
    92   200   199   ar
    93   203   201   ar
    94   122   124   am
    95   122   121    1
    96    52    53   ar
    97    52    50   ar
    98   153   152    2
    99   196   197    2
   100    53    51   ar
   101   199   201   ar
   102   199   198    1
   103   143   142    1
   104   143   150   am
   105   142   145    1
   106   142   141    1
   107    87    88    1
   108    50    49   ar
   109    93    91    1
   110    44    45    1
   111   152   151    1
   112    22    21    2
   113    51    49   ar
   114   121   118    1
   115    49    48    1
   116    88    91    1
   117    88    89    1
   118   150   151    1
   119   118   119    1
   120   118   117    1
   121   151   154    1
   122   120   119    2
   123   107   106    1
   124    30    29    2
   125    45    48    1
   126    45    46    1
   127   131   130    1
   128   131   132    1
   129    91    92    1
   130    21    20    1
   131    21    27   am
   132   130   129    1
   133    25    24    2
   134    29    28    1
   135   205   206    1
   136    90    89    2
   137    28    27    1
   138    28    31    1
   139    89    94   am
   140    20    23    1
   141    20    19    1
   142   108   106    1
   143   154   155    1
   144   154   156    1
   145   106   103    1
   146    23    24    1
   147    46    47    2
   148   100    99    1
   149   105   104    2
   150    24    26   am
   151    31    32    1
   152    94    95    1
   153   129   126    1
   154   103   104    1
   155   103   102    1
   156   206   209    1
   157   206   207    1
   158   211   210    1
   159   104   109   am
   160   136   135    2
   161   208   207    2
   162   209   210    1
   163   212   210    1
   164   125   126    1
   165    99   101    1
   166    99    98    1
   167   126   127    1
   168   115   114    1
   169    95    98    1
   170    95    96    1
   171   135   134    1
   172   109   110    1
   173   112   111    2
   174   134   133    1
   175   134   137    1
   176   110   111    1
   177   110   113    1
   178    11    10    2
   179    18    16   ar
   180    18    17   ar
   181    96    97    2
   182   139   137    1
   183     4     3    2
   184    16    14   ar
   185   127   128    2
   186   114   113    1
   187   114   116    1
   188   137   138    1
   189   138   140    1
   190    10     9    1
   191    17    15   ar
   192    14    13   ar
   193     9     8    1
   194     9    12    1
   195     6     5    1
   196    15    13   ar
   197     3     8   am
   198     3     2    1
   199    13    12    1
   200   224   222    1
   201   223   222    1
   202   217   214    1
   203     2     5    1
   204     2     1    1
   205     5     7    1
   206   222   219    1
   207   215   214    1
   208   215   216    2
   209   214   213    1
   210   219   220    1
   211   219   218    1
   212   221   220    2
