@<TRIPOS>MOLECULE
tmp/1gecA00.pdb
 163 159 0 0 0
SMALL
GASTEIGER

@<TRIPOS>ATOM
      1  N         21.5920   46.5390   23.9010 N.3    19  GLN19      -0.1245
      2  CA        21.4990   47.2970   25.1570 C.3    19  GLN19       0.1566
      3  C         21.5070   48.7850   24.7670 C.2    19  GLN19       0.2260
      4  O         21.0020   49.6580   25.4980 O.2    19  GLN19      -0.2867
      5  CB        22.7690   47.1470   25.9930 C.3    19  GLN19       0.0367
      6  CG        22.9530   46.0020   26.8790 C.3    19  GLN19       0.0905
      7  CD        24.4070   45.9890   27.4160 C.2    19  GLN19       0.2608
      8  OE1       25.0600   44.9540   27.4230 O.2    19  GLN19      -0.2717
      9  NE2       24.9160   47.1550   27.8250 N.am   19  GLN19      -0.0878
     10  N         24.0730   51.2510   30.4630 N.3    23  GLU23      -0.1245
     11  CA        24.7350   50.1570   31.2030 C.3    23  GLU23       0.1567
     12  C         23.7620   49.1960   31.8700 C.2    23  GLU23       0.2260
     13  O         23.7830   49.0370   33.0820 O.2    23  GLU23      -0.2867
     14  CB        25.6710   50.7140   32.2670 C.3    23  GLU23       0.0388
     15  CG        26.9890   51.2920   31.7990 C.3    23  GLU23       0.1160
     16  CD        27.9710   51.4390   32.9880 C.2    23  GLU23       0.3649
     17  OE1       28.6910   50.4380   33.2550 O.co2  23  GLU23      -0.2457
     18  OE2       27.9950   52.5120   33.6800 O.co2  23  GLU23      -0.2457
     19  N         23.4550   45.6430   31.0410 N.3    25  CYS25      -0.1221
     20  CA        23.7450   44.2090   30.7940 C.3    25  CYS25       0.1808
     21  C         23.1780   43.2720   31.8320 C.2    25  CYS25       0.2601
     22  O         22.7980   42.1710   31.5310 O.2    25  CYS25      -0.2717
     23  CB        25.2320   43.9310   30.6240 C.3    25  CYS25       0.0970
     24  SG        26.2980   44.5210   31.9000 S.3    25  CYS25      -0.0800
     25  N         23.1020   43.7260   33.0610 N.am   26  TRP26      -0.1976
     26  CA        22.5190   42.9340   34.1480 C.3    26  TRP26       0.1640
     27  C         21.0600   42.5950   33.8750 C.2    26  TRP26       0.2290
     28  O         20.6230   41.5010   34.2440 O.2    26  TRP26      -0.2864
     29  CB        22.6040   43.7060   35.4640 C.3    26  TRP26       0.0576
     30  CG        22.0350   45.1080   35.4020 C.ar   26  TRP26       0.0006
     31  CD1       22.6610   46.2350   34.9230 C.ar   26  TRP26       0.0946
     32  CD2       20.7330   45.5210   35.8460 C.ar   26  TRP26       0.0152
     33  NE1       21.8280   47.3030   35.0340 N.ar   26  TRP26      -0.2442
     34  CE2       20.6330   46.9040   35.5940 C.ar   26  TRP26       0.0810
     35  CE3       19.6290   44.8460   36.4150 C.ar   26  TRP26       0.0012
     36  CZ2       19.4640   47.6480   35.8870 C.ar   26  TRP26       0.0191
     37  CZ3       18.4400   45.5850   36.7040 C.ar   26  TRP26       0.0001
     38  CH2       18.3750   46.9680   36.4360 C.ar   26  TRP26       0.0015
     39  N         20.8320   50.1150   39.4680 N.3    61  TYR61      -0.1241
     40  CA        20.8630   51.4940   39.0520 C.3    61  TYR61       0.1605
     41  C         20.4220   51.8330   37.6330 C.2    61  TYR61       0.2264
     42  O         20.9740   52.7630   37.0230 O.2    61  TYR61      -0.2867
     43  CB        22.2730   52.0520   39.3320 C.3    61  TYR61       0.0534
     44  CG        22.7100   51.7740   40.7440 C.ar   61  TYR61      -0.0201
     45  CD1       23.1820   50.5000   41.1370 C.ar   61  TYR61      -0.0009
     46  CD2       22.6550   52.7800   41.7050 C.ar   61  TYR61      -0.0009
     47  CE1       23.6020   50.2480   42.4570 C.ar   61  TYR61       0.0417
     48  CE2       23.0750   52.5370   43.0140 C.ar   61  TYR61       0.0417
     49  CZ        23.5550   51.2750   43.3830 C.ar   61  TYR61       0.1957
     50  OH        24.0340   51.1300   44.6790 O.3    61  TYR61      -0.2866
     51  N         24.4550   50.4320   35.7180 N.3    65  ARG65      -0.1231
     52  CA        24.8670   49.1630   36.3210 C.3    65  ARG65       0.1694
     53  C         23.7980   48.6510   37.2340 C.2    65  ARG65       0.2593
     54  O         22.8970   49.3700   37.6140 O.2    65  ARG65      -0.2718
     55  CB        26.2470   49.2310   37.0500 C.3    65  ARG65       0.0321
     56  CG        27.4220   49.8000   36.2050 C.3    65  ARG65       0.0489
     57  CD        28.8050   49.6070   36.8300 C.3    65  ARG65       0.2205
     58  NE        28.9590   50.3270   38.1010 N.pl3  65  ARG65      -0.0865
     59  CZ        29.9630   50.1110   38.9640 C.cat  65  ARG65       0.5346
     60  NH1       30.9110   49.2140   38.6810 N.pl3  65  ARG65       0.1354
     61  NH2       30.0360   50.7880   40.1080 N.pl3  65  ARG65       0.1354
     62  N         23.9210   47.3860   37.5930 N.am   66  GLY66      -0.1942
     63  CA        22.9370   46.7620   38.4470 C.3    66  GLY66       0.2014
     64  C         23.4240   45.3960   38.8520 C.2    66  GLY66       0.2639
     65  O         24.5370   45.0060   38.5120 O.2    66  GLY66      -0.2714
     66  N         22.5540   44.6430   39.5010 N.am   67  TYR67      -0.1959
     67  CA        22.9180   43.3200   40.0140 C.3    67  TYR67       0.1771
     68  C         22.1780   42.1570   39.3830 C.2    67  TYR67       0.2619
     69  O         21.0880   42.3210   38.8280 O.2    67  TYR67      -0.2715
     70  CB        22.6920   43.2730   41.5330 C.3    67  TYR67       0.0574
     71  CG        23.5150   44.3010   42.2990 C.ar   67  TYR67      -0.0198
     72  CD1       24.8610   44.0570   42.5910 C.ar   67  TYR67      -0.0009
     73  CD2       22.9470   45.4990   42.7640 C.ar   67  TYR67      -0.0009
     74  CE1       25.6320   44.9650   43.3220 C.ar   67  TYR67       0.0417
     75  CE2       23.7190   46.4150   43.5130 C.ar   67  TYR67       0.0417
     76  CZ        25.0640   46.1280   43.7780 C.ar   67  TYR67       0.1957
     77  OH        25.8720   46.9880   44.4720 O.3    67  TYR67      -0.2866
     78  N         22.8630   41.0170   39.3670 N.am   68  GLN68      -0.1977
     79  CA        22.3550   39.7560   38.8760 C.3    68  GLN68       0.1601
     80  C         21.3240   39.2880   39.8840 C.2    68  GLN68       0.2287
     81  O         20.1950   39.0750   39.5300 O.2    68  GLN68      -0.2864
     82  CB        23.4830   38.7210   38.8300 C.3    68  GLN68       0.0394
     83  CG        24.4850   38.9460   37.6990 C.3    68  GLN68       0.0908
     84  CD        25.7800   38.1740   37.8730 C.2    68  GLN68       0.2608
     85  OE1       26.6030   38.5370   38.7130 O.2    68  GLN68      -0.2717
     86  NE2       25.9540   37.0810   37.1010 N.am   68  GLN68      -0.0878
     87  N         22.7260   30.7470   42.8630 N.3   112  ARG112     -0.1245
     88  CA        24.0530   31.2190   42.4990 C.3   112  ARG112      0.1563
     89  C         24.9130   29.9800   42.4330 C.2   112  ARG112      0.2260
     90  O         24.8630   29.1440   43.3340 O.2   112  ARG112     -0.2867
     91  CB        24.6440   32.1840   43.5410 C.3   112  ARG112      0.0307
     92  CG        26.1130   32.5200   43.2450 C.3   112  ARG112      0.0489
     93  CD        26.8490   33.4730   44.2310 C.3   112  ARG112      0.2205
     94  NE        28.3020   33.3600   43.9690 N.pl3 112  ARG112     -0.0865
     95  CZ        29.0890   34.3490   43.5460 C.cat 112  ARG112      0.5346
     96  NH1       28.6130   35.5600   43.3730 N.pl3 112  ARG112      0.1354
     97  NH2       30.2620   34.0720   43.0060 N.pl3 112  ARG112      0.1354
     98  N         29.2590   36.4340   34.3240 N.3   133  VAL133     -0.1245
     99  CA        29.9480   37.7070   34.2980 C.3   133  VAL133      0.1561
    100  C         31.2390   37.4730   33.5040 C.2   133  VAL133      0.2260
    101  O         31.7290   36.3450   33.4470 O.2   133  VAL133     -0.2867
    102  CB        30.2040   38.1580   35.7760 C.3   133  VAL133      0.0252
    103  CG1       31.3940   37.4540   36.3840 C.3   133  VAL133      0.0019
    104  CG2       30.3510   39.6140   35.8810 C.3   133  VAL133      0.0019
    105  N         36.0870   41.3910   35.6360 N.3   157  VAL157     -0.1231
    106  CA        34.7410   41.3220   35.0920 C.3   157  VAL157      0.1692
    107  C         34.0260   42.6540   35.1430 C.2   157  VAL157      0.2592
    108  O         34.2140   43.4260   36.0660 O.2   157  VAL157     -0.2718
    109  CB        33.8660   40.1920   35.8080 C.3   157  VAL157      0.0266
    110  CG1       34.4990   38.8120   35.5830 C.3   157  VAL157      0.0020
    111  CG2       33.6510   40.4770   37.3200 C.3   157  VAL157      0.0020
    112  N         33.1850   42.9140   34.1530 N.am  158  ASP158     -0.1960
    113  CA        32.4400   44.1700   34.1050 C.3   158  ASP158      0.1840
    114  C         31.2250   44.0230   33.2330 C.2   158  ASP158      0.2622
    115  O         30.5860   44.9860   32.8820 O.2   158  ASP158     -0.2715
    116  CB        33.3360   45.2990   33.5610 C.3   158  ASP158      0.1450
    117  CG        33.9850   44.9570   32.2080 C.2   158  ASP158      0.3671
    118  OD1       33.5870   43.9150   31.6200 O.co2 158  ASP158     -0.2456
    119  OD2       34.8650   45.7400   31.7420 O.co2 158  ASP158     -0.2456
    120  N         30.8000   42.7990   32.9990 N.am  159  HIS159     -0.1959
    121  CA        29.6900   42.6100   32.0680 C.3   159  HIS159      0.1787
    122  C         28.9570   41.2940   32.3500 C.2   159  HIS159      0.2620
    123  O         29.5510   40.3190   32.7160 O.2   159  HIS159     -0.2715
    124  CB        30.3180   42.6690   30.6530 C.3   159  HIS159      0.0785
    125  CG        29.3460   42.6880   29.5220 C.ar  159  HIS159      0.0821
    126  ND1       28.3210   43.5960   29.4290 N.ar  159  HIS159     -0.2267
    127  CD2       29.2420   41.8870   28.4360 C.ar  159  HIS159      0.1154
    128  CE1       27.6150   43.3460   28.3460 C.ar  159  HIS159      0.1986
    129  NE2       28.1540   42.3140   27.7280 N.ar  159  HIS159     -0.2212
    130  N         27.6370   41.3650   32.3790 N.am  160  ALA160     -0.1977
    131  CA        26.7750   40.2060   32.6000 C.3   160  ALA160      0.1597
    132  C         26.2260   39.7240   31.2040 C.2   160  ALA160      0.2287
    133  O         25.6910   40.5220   30.3690 O.2   160  ALA160     -0.2864
    134  CB        25.6030   40.6020   33.5850 C.3   160  ALA160      0.0319
    135  N         33.3500   33.6470   37.8150 N.3   208  ARG208     -0.1231
    136  CA        33.1410   34.4240   39.0340 C.3   208  ARG208      0.1694
    137  C         31.7550   34.5890   39.6980 C.2   208  ARG208      0.2592
    138  O         31.6110   34.2610   40.8510 O.2   208  ARG208     -0.2718
    139  CB        33.8530   35.7990   38.9390 C.3   208  ARG208      0.0321
    140  CG        35.4100   35.8060   38.8960 C.3   208  ARG208      0.0489
    141  CD        35.9560   37.2850   38.7690 C.3   208  ARG208      0.2205
    142  NE        37.4230   37.5030   38.7480 N.pl3 208  ARG208     -0.0865
    143  CZ        38.3000   37.0080   39.6340 C.cat 208  ARG208      0.5346
    144  NH1       37.8870   36.2280   40.6510 N.pl3 208  ARG208      0.1354
    145  NH2       39.6030   37.2850   39.5110 N.pl3 208  ARG208      0.1354
    146  N         30.7360   35.0390   38.9740 N.am  209  SER209     -0.1952
    147  CA        29.3940   35.2890   39.5600 C.3   209  SER209      0.1924
    148  C         28.3040   34.7800   38.6110 C.2   209  SER209      0.2314
    149  O         27.9160   35.5010   37.6870 O.2   209  SER209     -0.2863
    150  CB        29.2550   36.8020   39.7610 C.3   209  SER209      0.2116
    151  OG        28.0300   37.1750   40.3400 O.3   209  SER209     -0.2180
    152  N         24.4360   33.2010   38.1620 N.3   211  TYR211     -0.1241
    153  CA        23.0930   33.0620   38.7530 C.3   211  TYR211      0.1605
    154  C         22.0650   32.4650   37.7710 C.2   211  TYR211      0.2264
    155  O         22.2550   32.4830   36.5480 O.2   211  TYR211     -0.2867
    156  CB        22.5560   34.4080   39.2420 C.3   211  TYR211      0.0534
    157  CG        23.1780   34.9260   40.5130 C.ar  211  TYR211     -0.0201
    158  CD1       22.6590   34.5930   41.7760 C.ar  211  TYR211     -0.0009
    159  CD2       24.2710   35.7560   40.4620 C.ar  211  TYR211     -0.0009
    160  CE1       23.2500   35.1070   42.9640 C.ar  211  TYR211      0.0417
    161  CE2       24.8620   36.2610   41.5970 C.ar  211  TYR211      0.0417
    162  CZ        24.3510   35.9490   42.8410 C.ar  211  TYR211      0.1957
    163  OH        24.9230   36.5800   43.9070 O.3   211  TYR211     -0.2866
@<TRIPOS>BOND
     1     1     2    1
     2     3     2    1
     3     3     4    2
     4     2     5    1
     5     5     6    1
     6     6     7    1
     7     7     8    2
     8     7     9   am
     9   129   128   ar
    10   129   127   ar
    11   128   126   ar
    12   127   125   ar
    13   126   125   ar
    14   125   124    1
    15   133   132    2
    16    10    11    1
    17    23    20    1
    18    23    24    1
    19   124   121    1
    20    20    19    1
    21    20    21    1
    22    11    12    1
    23    11    14    1
    24   132   131    1
    25    22    21    2
    26   118   117   ar
    27   119   117   ar
    28    15    14    1
    29    15    16    1
    30    21    25   am
    31    12    13    2
    32   121   122    1
    33   121   120    1
    34   117   116    1
    35   122   130   am
    36   122   123    2
    37   130   131    1
    38   131   134    1
    39   115   114    2
    40    16    17   ar
    41    16    18   ar
    42   120   114   am
    43    25    26    1
    44   114   113    1
    45   101   100    2
    46   100    99    1
    47   116   113    1
    48    27    26    1
    49    27    28    2
    50   113   112    1
    51    26    29    1
    52   112   107   am
    53    99    98    1
    54    99   102    1
    55    31    33   ar
    56    31    30   ar
    57    33    34   ar
    58   106   107    1
    59   106   105    1
    60   106   109    1
    61   107   108    2
    62    30    29    1
    63    30    32   ar
    64   110   109    1
    65    34    32   ar
    66    34    36   ar
    67    51    52    1
    68   102   104    1
    69   102   103    1
    70   109   111    1
    71    32    35   ar
    72    36    38   ar
    73    56    57    1
    74    56    55    1
    75    52    55    1
    76    52    53    1
    77    35    37   ar
    78    38    37   ar
    79   155   154    2
    80    57    58    1
    81    42    41    2
    82    86    84   am
    83    53    62   am
    84    53    54    2
    85    62    63    1
    86    41    40    1
    87   149   148    2
    88    83    84    1
    89    83    82    1
    90   154   153    1
    91   135   136    1
    92    84    85    2
    93    58    59    2
    94   152   153    1
    95    63    64    1
    96    65    64    2
    97   148   147    1
    98    60    59    1
    99   142   141    1
   100   142   143    2
   101   153   156    1
   102   141   140    1
   103    69    68    2
   104    82    79    1
   105    64    66   am
   106    79    78    1
   107    79    80    1
   108   140   139    1
   109   139   136    1
   110    59    61    1
   111   146   147    1
   112   146   137   am
   113   136   137    1
   114    40    43    1
   115    40    39    1
   116   156   157    1
   117    43    44    1
   118    78    68   am
   119    68    67    1
   120    66    67    1
   121   145   143    1
   122    81    80    2
   123   147   150    1
   124   143   144    1
   125   137   138    2
   126   150   151    1
   127    67    70    1
   128   159   157   ar
   129   159   161   ar
   130   157   158   ar
   131    44    45   ar
   132    44    46   ar
   133    45    47   ar
   134    70    71    1
   135   161   162   ar
   136    46    48   ar
   137   158   160   ar
   138    71    72   ar
   139    71    73   ar
   140    89    88    1
   141    89    90    2
   142    47    49   ar
   143    88    87    1
   144    88    91    1
   145    72    74   ar
   146    73    75   ar
   147   162   160   ar
   148   162   163    1
   149    97    95    1
   150    48    49   ar
   151    92    91    1
   152    92    93    1
   153    74    76   ar
   154    96    95    1
   155    49    50    1
   156    75    76   ar
   157    95    94    2
   158    76    77    1
   159    94    93    1
