@<TRIPOS>MOLECULE
tmp/1geuA01.pdb
 212 208 0 0 0
SMALL
GASTEIGER

@<TRIPOS>ATOM
      1  N         17.3270    9.8570   -9.8960 N.3    48  LYS48      -0.1245
      2  CA        18.6840   10.4080   -9.8850 C.3    48  LYS48       0.1561
      3  C         19.6960    9.2810   -9.7990 C.2    48  LYS48       0.2260
      4  O         20.6570    9.2220  -10.5830 O.2    48  LYS48      -0.2867
      5  CB        18.7970   11.3700   -8.7110 C.3    48  LYS48       0.0271
      6  CG        20.1290   12.0650   -8.3460 C.3    48  LYS48       0.0035
      7  CD        21.1250   11.2040   -7.5470 C.3    48  LYS48       0.0206
      8  CE        20.5670   10.7730   -6.1920 C.3    48  LYS48       0.1093
      9  NZ        20.0810   11.9390   -5.4660 N.3    48  LYS48      -0.1314
     10  N         15.8600   32.1160  -10.1040 N.3   144  PRO144     -0.2116
     11  CA        16.3100   33.4620   -9.8050 C.3   144  PRO144      0.1372
     12  C         15.4160   34.5450  -10.4120 C.2   144  PRO144      0.2244
     13  O         14.6810   34.3050  -11.3880 O.2   144  PRO144     -0.2868
     14  CB        17.7270   33.4070  -10.3030 C.3   144  PRO144      0.0268
     15  CG        17.7210   32.4280  -11.4380 C.3   144  PRO144      0.0207
     16  CD        16.6750   31.4120  -11.0830 C.3   144  PRO144      0.0892
     17  N         23.6030   25.7430  -12.8780 N.3   171  VAL171     -0.1231
     18  CA        23.8180   26.9150  -12.0810 C.3   171  VAL171      0.1692
     19  C         23.3750   26.5570  -10.6740 C.2   171  VAL171      0.2593
     20  O         22.1850   26.4120  -10.4050 O.2   171  VAL171     -0.2718
     21  CB        22.9870   28.0880  -12.6620 C.3   171  VAL171      0.0266
     22  CG1       22.9950   29.2920  -11.7570 C.3   171  VAL171      0.0020
     23  CG2       23.5770   28.4620  -13.9960 C.3   171  VAL171      0.0020
     24  N         24.3540   26.4870   -9.7830 N.am  172  GLY172     -0.1942
     25  CA        24.1770   26.1650   -8.4110 C.3   172  GLY172      0.2014
     26  C         25.0320   24.9390   -8.1660 C.2   172  GLY172      0.2639
     27  O         24.7100   23.8600   -8.6850 O.2   172  GLY172     -0.2714
     28  N         26.1060   24.9840   -7.3820 N.am  173  ALA173     -0.1963
     29  CA        26.9200   23.7910   -7.1680 C.3   173  ALA173      0.1728
     30  C         26.8900   23.3510   -5.6950 C.2   173  ALA173      0.2617
     31  O         27.8980   23.3180   -4.9550 O.2   173  ALA173     -0.2715
     32  CB        28.3690   24.0540   -7.5750 C.3   173  ALA173      0.0334
     33  N         25.6500   23.0380   -5.3010 N.am  174  GLY174     -0.1940
     34  CA        25.3730   22.4340   -4.0270 C.3   174  GLY174      0.2014
     35  C         25.0610   20.9750   -4.2640 C.2   174  GLY174      0.2639
     36  O         25.6100   20.3560   -5.1700 O.2   174  GLY174     -0.2714
     37  N         24.1540   20.3660   -3.5080 N.am  175  TYR175     -0.1959
     38  CA        23.8830   18.9420   -3.6630 C.3   175  TYR175      0.1771
     39  C         23.4050   18.4990   -5.0300 C.2   175  TYR175      0.2619
     40  O         23.9380   17.5690   -5.5930 O.2   175  TYR175     -0.2715
     41  CB        22.8100   18.4380   -2.7210 C.3   175  TYR175      0.0574
     42  CG        23.2080   18.0720   -1.3280 C.ar  175  TYR175     -0.0198
     43  CD1       23.3880   19.0770   -0.3790 C.ar  175  TYR175     -0.0009
     44  CD2       23.2780   16.7250   -0.9750 C.ar  175  TYR175     -0.0009
     45  CE1       23.6240   18.7450    0.9530 C.ar  175  TYR175      0.0417
     46  CE2       23.5140   16.3800    0.3590 C.ar  175  TYR175      0.0417
     47  CZ        23.6790   17.3980    1.3050 C.ar  175  TYR175      0.1957
     48  OH        23.8780   17.0810    2.6340 O.3   175  TYR175     -0.2866
     49  N         22.4010   19.1920   -5.5220 N.am  176  ILE176     -0.1963
     50  CA        21.7220   18.8760   -6.7590 C.3   176  ILE176      0.1727
     51  C         22.6250   19.2430   -7.9030 C.2   176  ILE176      0.2616
     52  O         22.7980   18.4290   -8.8090 O.2   176  ILE176     -0.2715
     53  CB        20.3600   19.6670   -6.8230 C.3   176  ILE176      0.0290
     54  CG1       19.4440   18.9470   -5.8590 C.3   176  ILE176      0.0022
     55  CG2       19.7090   19.7350   -8.2230 C.3   176  ILE176      0.0023
     56  CD1       18.0880   19.6390   -5.6040 C.3   176  ILE176      0.0001
     57  N         23.1740   20.4680   -7.8950 N.am  177  GLY177     -0.1955
     58  CA        24.0620   20.9310   -8.9540 C.3   177  GLY177      0.1869
     59  C         25.2830   20.0280   -9.1240 C.2   177  GLY177      0.2309
     60  O         25.5780   19.5550  -10.2230 O.2   177  GLY177     -0.2863
     61  N         25.5610   16.8560   -8.0870 N.3   179  GLU179     -0.1245
     62  CA        25.1410   15.5180   -8.5100 C.3   179  GLU179      0.1567
     63  C         24.6860   15.5120   -9.9600 C.2   179  GLU179      0.2260
     64  O         25.1680   14.7050  -10.7440 O.2   179  GLU179     -0.2867
     65  CB        23.9750   15.0040   -7.6980 C.3   179  GLU179      0.0388
     66  CG        24.2260   14.5710   -6.2810 C.3   179  GLU179      0.1160
     67  CD        22.9940   13.9720   -5.5890 C.2   179  GLU179      0.3649
     68  OE1       21.8910   14.4730   -5.7680 O.co2 179  GLU179     -0.2457
     69  OE2       23.1040   13.0010   -4.8550 O.co2 179  GLU179     -0.2457
     70  N         28.1850   26.4290  -12.3070 N.3   194  PHE194     -0.1227
     71  CA        28.4540   27.7780  -11.8670 C.3   194  PHE194      0.1736
     72  C         28.0890   27.8450  -10.3950 C.2   194  PHE194      0.2595
     73  O         27.0710   27.2640   -9.9990 O.2   194  PHE194     -0.2718
     74  CB        27.6210   28.7750  -12.6550 C.3   194  PHE194      0.0547
     75  CG        28.0120   28.9120  -14.1510 C.ar  194  PHE194     -0.0202
     76  CD1       27.4670   28.0350  -15.0960 C.ar  194  PHE194     -0.0042
     77  CD2       28.9380   29.8860  -14.5630 C.ar  194  PHE194     -0.0042
     78  CE1       27.8290   28.1110  -16.4390 C.ar  194  PHE194     -0.0003
     79  CE2       29.3030   29.9620  -15.9200 C.ar  194  PHE194     -0.0003
     80  CZ        28.7530   29.0810  -16.8540 C.ar  194  PHE194     -0.0000
     81  N         28.8620   28.5080   -9.5460 N.am  195  GLU195     -0.1965
     82  CA        28.5170   28.6000   -8.1330 C.3   195  GLU195      0.1733
     83  C         28.8100   30.0290   -7.7310 C.2   195  GLU195      0.2616
     84  O         29.8280   30.5640   -8.1640 O.2   195  GLU195     -0.2715
     85  CB        29.3690   27.5520   -7.3310 C.3   195  GLU195      0.0429
     86  CG        29.3650   27.7330   -5.8270 C.3   195  GLU195      0.1163
     87  CD        27.9730   27.8440   -5.2090 C.2   195  GLU195      0.3649
     88  OE1       27.1400   26.9880   -5.5530 O.co2 195  GLU195     -0.2457
     89  OE2       27.7130   28.7730   -4.4250 O.co2 195  GLU195     -0.2457
     90  N         27.9520   30.7220   -6.9850 N.am  196  MET196     -0.1963
     91  CA        28.2450   32.0920   -6.5960 C.3   196  MET196      0.1736
     92  C         29.3140   32.2440   -5.5140 C.2   196  MET196      0.2616
     93  O         29.8910   33.3240   -5.3230 O.2   196  MET196     -0.2715
     94  CB        26.9760   32.7970   -6.1080 C.3   196  MET196      0.0427
     95  CG        26.2450   32.1440   -4.9180 C.3   196  MET196      0.0599
     96  SD        25.1550   33.3160   -4.0290 S.3   196  MET196     -0.1393
     97  CE        24.6130   34.3710   -5.3560 C.3   196  MET196      0.0692
     98  N         29.5930   31.2040   -4.7400 N.am  197  PHE197     -0.1974
     99  CA        30.6240   31.2900   -3.7440 C.3   197  PHE197      0.1639
    100  C         31.8910   30.7850   -4.3680 C.2   197  PHE197      0.2290
    101  O         31.8980   30.4000   -5.5250 O.2   197  PHE197     -0.2864
    102  CB        30.2190   30.4550   -2.5100 C.3   197  PHE197      0.0560
    103  CG        29.1430   31.1990   -1.7210 C.ar  197  PHE197     -0.0200
    104  CD1       29.2890   32.5760   -1.4660 C.ar  197  PHE197     -0.0042
    105  CD2       27.9840   30.5390   -1.2900 C.ar  197  PHE197     -0.0042
    106  CE1       28.2870   33.2820   -0.7840 C.ar  197  PHE197     -0.0003
    107  CE2       26.9860   31.2590   -0.6080 C.ar  197  PHE197     -0.0003
    108  CZ        27.1310   32.6280   -0.3630 C.ar  197  PHE197     -0.0000
    109  N         29.9500   24.4650   -0.4780 N.3   202  PRO202     -0.2116
    110  CA        30.7040   25.3370    0.3990 C.3   202  PRO202      0.1372
    111  C         30.4660   25.1190    1.8850 C.2   202  PRO202      0.2244
    112  O         31.2140   25.6710    2.6860 O.2   202  PRO202     -0.2868
    113  CB        30.3400   26.7270   -0.1170 C.3   202  PRO202      0.0268
    114  CG        29.0200   26.6280   -0.8380 C.3   202  PRO202      0.0207
    115  CD        29.1020   25.2130   -1.4240 C.3   202  PRO202      0.0892
    116  N         30.6170   33.0000   -9.6270 N.3   227  ALA227     -0.1231
    117  CA        29.7980   33.3230  -10.8020 C.3   227  ALA227      0.1694
    118  C         28.3120   33.5070  -10.4540 C.2   227  ALA227      0.2592
    119  O         27.6310   32.5950   -9.9580 O.2   227  ALA227     -0.2718
    120  CB        30.0150   32.1960  -11.7960 C.3   227  ALA227      0.0304
    121  N         27.7710   34.6920  -10.6980 N.am  228  ILE228     -0.1966
    122  CA        26.3740   34.9680  -10.3710 C.3   228  ILE228      0.1712
    123  C         25.7280   35.3390  -11.6930 C.2   228  ILE228      0.2458
    124  O         26.2300   36.2690  -12.3250 O.2   228  ILE228     -0.2730
    125  CB        26.2180   36.1730   -9.3790 C.3   228  ILE228      0.0289
    126  CG1       27.1080   35.9910   -8.1440 C.3   228  ILE228      0.0022
    127  CG2       24.7390   36.2580   -8.9180 C.3   228  ILE228      0.0023
    128  CD1       27.3100   37.2630   -7.3050 C.3   228  ILE228      0.0001
    129  N         24.7020   34.6530  -12.2170 N.am  229  PRO229     -0.2727
    130  CA        24.0760   35.0150  -13.4790 C.3   229  PRO229      0.1402
    131  C         23.3300   36.3160  -13.3510 C.2   229  PRO229      0.2269
    132  O         22.7190   36.6420  -12.3160 O.2   229  PRO229     -0.2865
    133  CB        23.1950   33.8510  -13.8260 C.3   229  PRO229      0.0296
    134  CG        22.9880   33.1410  -12.5030 C.3   229  PRO229      0.0237
    135  CD        24.3300   33.3030  -11.8180 C.3   229  PRO229      0.0939
    136  N         19.7580   25.1070  -10.0850 N.3   258  ALA258     -0.1231
    137  CA        19.9570   24.2020   -8.9660 C.3   258  ALA258      0.1694
    138  C         20.4550   25.0660   -7.8250 C.2   258  ALA258      0.2592
    139  O         21.3900   24.7790   -7.0580 O.2   258  ALA258     -0.2718
    140  CB        21.0150   23.1860   -9.2660 C.3   258  ALA258      0.0304
    141  N         19.6940   26.1340   -7.6890 N.am  259  ILE259     -0.1966
    142  CA        19.9980   27.1570   -6.7510 C.3   259  ILE259      0.1727
    143  C         19.2880   26.9970   -5.4040 C.2   259  ILE259      0.2617
    144  O         19.2960   27.9250   -4.5890 O.2   259  ILE259     -0.2715
    145  CB        19.6440   28.5460   -7.3640 C.3   259  ILE259      0.0290
    146  CG1       18.1840   28.6200   -7.8060 C.3   259  ILE259      0.0022
    147  CG2       20.6240   28.8320   -8.4780 C.3   259  ILE259      0.0023
    148  CD1       17.6880   30.0760   -7.7000 C.3   259  ILE259      0.0001
    149  N         18.6580   25.8760   -5.0540 N.am  260  GLY260     -0.1940
    150  CA        17.9520   25.8400   -3.7640 C.3   260  GLY260      0.2014
    151  C         16.4740   25.4450   -3.8750 C.2   260  GLY260      0.2638
    152  O         15.9180   25.3460   -4.9670 O.2   260  GLY260     -0.2714
    153  N         15.8090   25.1080   -2.7740 N.am  261  ARG261     -0.1977
    154  CA        14.4050   24.7440   -2.8450 C.3   261  ARG261      0.1597
    155  C         13.6390   25.6850   -1.9280 C.2   261  ARG261      0.2287
    156  O         14.2190   26.4400   -1.1290 O.2   261  ARG261     -0.2864
    157  CB        14.2470   23.2820   -2.4400 C.3   261  ARG261      0.0334
    158  CG        14.6290   22.4750   -3.6570 C.3   261  ARG261      0.0492
    159  CD        14.5980   20.9620   -3.4930 C.3   261  ARG261      0.2205
    160  NE        13.2740   20.3670   -3.2820 N.pl3 261  ARG261     -0.0865
    161  CZ        12.4190   20.0740   -4.2710 C.cat 261  ARG261      0.5346
    162  NH1       12.7260   20.3570   -5.5340 N.pl3 261  ARG261      0.1354
    163  NH2       11.2410   19.5020   -3.9800 N.pl3 261  ARG261      0.1354
    164  N         16.6170   19.5850    7.6800 N.3   306  VAL306     -0.1231
    165  CA        17.5120   19.0880    6.6440 C.3   306  VAL306      0.1692
    166  C         16.7500   18.2750    5.6190 C.2   306  VAL306      0.2592
    167  O         15.9990   17.3550    5.9390 O.2   306  VAL306     -0.2718
    168  CB        18.6610   18.2880    7.3630 C.3   306  VAL306      0.0266
    169  CG1       18.1890   17.1030    8.1990 C.3   306  VAL306      0.0020
    170  CG2       19.5800   17.7810    6.2780 C.3   306  VAL306      0.0020
    171  N         16.9160   18.6150    4.3510 N.am  307  GLU307     -0.1966
    172  CA        16.1220   17.9960    3.3080 C.3   307  GLU307      0.1733
    173  C         16.6740   16.7090    2.7950 C.2   307  GLU307      0.2616
    174  O         17.4840   16.6540    1.8740 O.2   307  GLU307     -0.2715
    175  CB        15.9440   18.9530    2.1470 C.3   307  GLU307      0.0429
    176  CG        15.2510   20.1830    2.7090 C.3   307  GLU307      0.1163
    177  CD        15.0000   21.3370    1.7630 C.2   307  GLU307      0.3649
    178  OE1       15.5840   21.3790    0.6840 O.co2 307  GLU307     -0.2457
    179  OE2       14.2070   22.2100    2.1170 O.co2 307  GLU307     -0.2457
    180  N         16.2760   15.6790    3.5160 N.am  308  LEU308     -0.1977
    181  CA        16.6450   14.3250    3.2040 C.3   308  LEU308      0.1596
    182  C         15.4030   13.4630    3.4180 C.2   308  LEU308      0.2287
    183  O         14.6020   13.7670    4.3070 O.2   308  LEU308     -0.2864
    184  CB        17.7750   13.8610    4.1310 C.3   308  LEU308      0.0297
    185  CG        19.0600   14.6750    4.0800 C.3   308  LEU308      0.0022
    186  CD1       19.9850   14.2550    5.1890 C.3   308  LEU308      0.0001
    187  CD2       19.7100   14.5020    2.7080 C.3   308  LEU308      0.0001
    188  N         24.8090   11.5580    5.5220 N.3   339  THR339     -0.1203
    189  CA        24.3500   12.0970    4.2620 C.3   339  THR339      0.1994
    190  C         25.2840   11.5490    3.2220 C.2   339  THR339      0.2617
    191  O         26.4920   11.5180    3.4840 O.2   339  THR339     -0.2717
    192  CB        24.4550   13.6390    4.1600 C.3   339  THR339      0.1784
    193  OG1       23.9690   14.2020    5.3670 O.3   339  THR339     -0.2211
    194  CG2       23.6210   14.1810    3.0490 C.3   339  THR339      0.0376
    195  N         24.7520   11.0910    2.0840 N.am  340  VAL340     -0.1979
    196  CA        25.6180   10.7930    0.9770 C.3   340  VAL340      0.1595
    197  C         25.1060   11.6020   -0.2160 C.2   340  VAL340      0.2287
    198  O         23.8940   11.7460   -0.4450 O.2   340  VAL340     -0.2864
    199  CB        25.6320    9.2890    0.6220 C.3   340  VAL340      0.0276
    200  CG1       26.3950    9.0130   -0.6690 C.3   340  VAL340      0.0022
    201  CG2       26.3520    8.5550    1.7410 C.3   340  VAL340      0.0022
    202  N         25.6330   11.7240   -4.2240 N.3   342  PHE342     -0.1241
    203  CA        25.9720   10.7700   -5.2620 C.3   342  PHE342      0.1605
    204  C         26.5700   11.6100   -6.4110 C.2   342  PHE342      0.2264
    205  O         25.9930   11.8080   -7.5080 O.2   342  PHE342     -0.2867
    206  CB        24.7110   10.0220   -5.7220 C.3   342  PHE342      0.0534
    207  CG        24.1800    9.0510   -4.6810 C.ar  342  PHE342     -0.0203
    208  CD1       23.2730    9.4910   -3.7210 C.ar  342  PHE342     -0.0042
    209  CD2       24.6140    7.7410   -4.6980 C.ar  342  PHE342     -0.0042
    210  CE1       22.8150    8.6020   -2.7610 C.ar  342  PHE342     -0.0003
    211  CE2       24.1580    6.8580   -3.7350 C.ar  342  PHE342     -0.0003
    212  CZ        23.2590    7.2780   -2.7690 C.ar  342  PHE342     -0.0000
@<TRIPOS>BOND
     1    80    78   ar
     2    80    79   ar
     3    78    76   ar
     4    79    77   ar
     5    76    75   ar
     6    77    75   ar
     7    75    74    1
     8    23    21    1
     9   133   130    1
    10   133   134    1
    11   130   131    1
    12   130   129    1
    13   131   132    2
    14    17    18    1
    15    21    18    1
    16    21    22    1
    17    74    71    1
    18   134   135    1
    19   124   123    2
    20    70    71    1
    21   129   135    1
    22   129   123   am
    23    18    19    1
    24    71    72    1
    25   120   117    1
    26   123   122    1
    27    15    16    1
    28    15    14    1
    29    13    12    2
    30    16    10    1
    31   117   118    1
    32   117   116    1
    33    64    63    2
    34   121   118   am
    35   121   122    1
    36    19    20    2
    37    19    24   am
    38     4     3    2
    39   118   119    2
    40    12    11    1
    41    72    73    2
    42    72    81   am
    43   122   125    1
    44    14    11    1
    45    60    59    2
    46    10    11    1
    47   136   137    1
    48    63    62    1
    49     1     2    1
    50     2     3    1
    51     2     5    1
    52    24    25    1
    53    81    82    1
    54   125   127    1
    55   125   126    1
    56   140   137    1
    57    59    58    1
    58   137   138    1
    59    58    57    1
    60    52    51    2
    61     5     6    1
    62    27    26    2
    63    62    61    1
    64    62    65    1
    65   147   145    1
    66    25    26    1
    67     6     7    1
    68    55    53    1
    69    26    28   am
    70    84    83    2
    71   126   128    1
    72    82    83    1
    73    82    85    1
    74    51    57   am
    75    51    50    1
    76   138   141   am
    77   138   139    2
    78   146   148    1
    79   146   145    1
    80    83    90   am
    81    65    66    1
    82   141   142    1
    83    32    29    1
    84     7     8    1
    85   205   204    2
    86    28    29    1
    87   145   142    1
    88    85    86    1
    89    29    30    1
    90    90    91    1
    91    53    50    1
    92    53    54    1
    93    50    49    1
    94   142   143    1
    95    91    94    1
    96    91    92    1
    97   204   203    1
    98    66    67    1
    99     8     9    1
   100    94    95    1
   101    54    56    1
   102    86    87    1
   103    68    67   ar
   104   206   203    1
   105   206   207    1
   106    30    33   am
   107    30    31    2
   108    40    39    2
   109    67    69   ar
   110    88    87   ar
   111   162   161    1
   112   101   100    2
   113    49    39   am
   114    92    93    2
   115    92    98   am
   116   143   149   am
   117   143   144    2
   118    97    96    1
   119    33    34    1
   120   203   202    1
   121    87    89   ar
   122    36    35    2
   123   149   150    1
   124    39    38    1
   125   152   151    2
   126    95    96    1
   127    98    99    1
   128   209   207   ar
   129   209   211   ar
   130   207   208   ar
   131   100    99    1
   132   161   163    1
   133   161   160    2
   134    35    34    1
   135    35    37   am
   136   151   150    1
   137   151   153   am
   138    99   102    1
   139   211   212   ar
   140   208   210   ar
   141    38    37    1
   142    38    41    1
   143   158   159    1
   144   158   157    1
   145   159   160    1
   146   154   153    1
   147   154   157    1
   148   154   155    1
   149   212   210   ar
   150    41    42    1
   151   102   103    1
   152   155   156    2
   153   103   104   ar
   154   103   105   ar
   155   104   106   ar
   156   115   114    1
   157   115   109    1
   158    42    44   ar
   159    42    43   ar
   160   105   107   ar
   161    44    46   ar
   162   114   113    1
   163   106   108   ar
   164   200   199    1
   165   107   108   ar
   166   109   110    1
   167   198   197    2
   168    43    45   ar
   169   197   196    1
   170   113   110    1
   171    46    47   ar
   172   110   111    1
   173   199   196    1
   174   199   201    1
   175   178   177   ar
   176    45    47   ar
   177   196   195    1
   178    47    48    1
   179   177   179   ar
   180   177   176    1
   181   174   173    2
   182   111   112    2
   183   195   190   am
   184   175   176    1
   185   175   172    1
   186   187   185    1
   187   173   172    1
   188   173   180   am
   189   194   192    1
   190   181   182    1
   191   181   180    1
   192   181   184    1
   193   190   191    2
   194   190   189    1
   195   172   171    1
   196   182   183    2
   197   185   184    1
   198   185   186    1
   199   192   189    1
   200   192   193    1
   201   189   188    1
   202   171   166   am
   203   166   167    2
   204   166   165    1
   205   170   168    1
   206   165   168    1
   207   165   164    1
   208   168   169    1
