@<TRIPOS>MOLECULE
tmp/1gexA01.pdb
 127 120 0 0 0
SMALL
GASTEIGER

@<TRIPOS>ATOM
      1  N          7.2110   19.4160   12.7300 N.3    16  TYR16      -0.1241
      2  CA         8.2620   20.4030   12.5070 C.3    16  TYR16       0.1605
      3  C          8.4200   21.4330   13.6290 C.2    16  TYR16       0.2264
      4  O          7.4630   22.0790   14.0580 O.2    16  TYR16      -0.2867
      5  CB         8.0950   21.1070   11.1560 C.3    16  TYR16       0.0534
      6  CG         9.2250   22.0640   10.8750 C.ar   16  TYR16      -0.0201
      7  CD1       10.5140   21.5860   10.6200 C.ar   16  TYR16      -0.0009
      8  CD2        9.0350   23.4460   10.9670 C.ar   16  TYR16      -0.0009
      9  CE1       11.5910   22.4580   10.4740 C.ar   16  TYR16       0.0417
     10  CE2       10.0950   24.3240   10.8280 C.ar   16  TYR16       0.0417
     11  CZ        11.3730   23.8250   10.5850 C.ar   16  TYR16       0.1957
     12  OH        12.4360   24.6880   10.4850 O.3    16  TYR16      -0.2866
     13  N         18.3220   33.0430   14.4120 N.3    23  ASN23      -0.1225
     14  CA        17.9430   31.6340   14.4500 C.3    23  ASN23       0.1785
     15  C         17.2570   31.0040   13.2350 C.2    23  ASN23       0.2597
     16  O         17.1330   29.7840   13.1800 O.2    23  ASN23      -0.2718
     17  CB        17.0270   31.4370   15.6540 C.3    23  ASN23       0.1169
     18  CG        15.6620   32.1050   15.4620 C.2    23  ASN23       0.2627
     19  OD1       15.5620   33.2760   15.0840 O.2    23  ASN23      -0.2716
     20  ND2       14.6100   31.3430   15.6950 N.am   23  ASN23      -0.0877
     21  N         16.8190   31.8050   12.2660 N.am   24  ALA24      -0.1966
     22  CA        16.0980   31.2560   11.1220 C.3    24  ALA24       0.1728
     23  C         16.6330   31.5850    9.7360 C.2    24  ALA24       0.2616
     24  O         15.9440   31.3660    8.7440 O.2    24  ALA24      -0.2715
     25  CB        14.6370   31.6410   11.2180 C.3    24  ALA24       0.0334
     26  N         17.8520   32.1160    9.6700 N.am   25  ASN25      -0.1972
     27  CA        18.4980   32.4730    8.3980 C.3    25  ASN25       0.1688
     28  C         17.7360   33.5030    7.5600 C.2    25  ASN25       0.2292
     29  O         17.8020   33.5090    6.3290 O.2    25  ASN25      -0.2864
     30  CB        18.8360   31.2160    7.5650 C.3    25  ASN25       0.1181
     31  CG        19.7800   30.2650    8.2920 C.2    25  ASN25       0.2629
     32  OD1       20.3860   30.6290    9.2940 O.2    25  ASN25      -0.2716
     33  ND2       19.8810   29.0330    7.8060 N.am   25  ASN25      -0.0877
     34  N          9.6680   24.8620    0.4390 N.3    73  ASP73      -0.1239
     35  CA         9.0570   23.8190    1.2600 C.3    73  ASP73       0.1674
     36  C          8.0080   23.0550    0.4570 C.2    73  ASP73       0.2266
     37  O          7.8880   21.8310    0.5700 O.2    73  ASP73      -0.2867
     38  CB         8.4020   24.4260    2.4960 C.3    73  ASP73       0.1410
     39  CG         9.3560   24.5480    3.6810 C.2    73  ASP73       0.3668
     40  OD1       10.4490   23.9470    3.6870 O.co2  73  ASP73      -0.2456
     41  OD2        8.9830   25.2340    4.6380 O.co2  73  ASP73      -0.2456
     42  N         18.9630   19.8040    6.1200 N.3    98  TYR98      -0.1227
     43  CA        17.6560   20.4270    6.3300 C.3    98  TYR98       0.1736
     44  C         16.5800   19.3790    6.7080 C.2    98  TYR98       0.2596
     45  O         16.4380   18.3430    6.0620 O.2    98  TYR98      -0.2718
     46  CB        17.2560   21.2290    5.0840 C.3    98  TYR98       0.0548
     47  CG        15.9680   22.0240    5.2190 C.ar   98  TYR98      -0.0200
     48  CD1       15.7160   22.7990    6.3510 C.ar   98  TYR98      -0.0009
     49  CD2       15.0210   22.0370    4.1940 C.ar   98  TYR98      -0.0009
     50  CE1       14.5590   23.5690    6.4590 C.ar   98  TYR98       0.0417
     51  CE2       13.8580   22.8090    4.2910 C.ar   98  TYR98       0.0417
     52  CZ        13.6380   23.5690    5.4220 C.ar   98  TYR98       0.1957
     53  OH        12.5120   24.3410    5.5250 O.3    98  TYR98      -0.2866
     54  N         15.8660   19.6500    7.7950 N.am   99  GLY99      -0.1942
     55  CA        14.8480   18.7360    8.2890 C.3    99  GLY99       0.2014
     56  C         13.5670   18.4830    7.5040 C.2    99  GLY99       0.2638
     57  O         12.9580   17.4320    7.6810 O.2    99  GLY99      -0.2714
     58  N         13.1550   19.3940    6.6290 N.am  100  MET100     -0.1976
     59  CA        11.9080   19.1890    5.8830 C.3   100  MET100      0.1605
     60  C         11.8830   18.0140    4.9150 C.2   100  MET100      0.2287
     61  O         10.7980   17.5880    4.5200 O.2   100  MET100     -0.2864
     62  CB        11.4450   20.4710    5.1730 C.3   100  MET100      0.0413
     63  CG        10.9550   21.5810    6.1030 C.3   100  MET100      0.0598
     64  SD         9.5950   21.0760    7.2070 S.3   100  MET100     -0.1393
     65  CE         8.4230   20.4650    6.0080 C.3   100  MET100      0.0692
     66  N         22.7410   23.2090    4.8500 N.3   145  ASN145     -0.1240
     67  CA        22.1780   23.8310    6.0300 C.3   145  ASN145      0.1653
     68  C         22.1510   22.6210    6.9500 C.2   145  ASN145      0.2266
     69  O         21.5280   21.6160    6.6150 O.2   145  ASN145     -0.2867
     70  CB        20.7500   24.3270    5.7390 C.3   145  ASN145      0.1155
     71  CG        20.0540   24.9090    6.9720 C.2   145  ASN145      0.2627
     72  OD1       20.6800   25.1630    8.0040 O.2   145  ASN145     -0.2716
     73  ND2       18.7530   25.1370    6.8560 N.am  145  ASN145     -0.0877
     74  N         20.2550   28.8180   -0.5090 N.3   175  TYR175     -0.1241
     75  CA        21.2670   29.8260   -0.1590 C.3   175  TYR175      0.1605
     76  C         22.2590   30.1230   -1.2630 C.2   175  TYR175      0.2264
     77  O         23.2560   30.7930   -1.0300 O.2   175  TYR175     -0.2867
     78  CB        22.0360   29.3900    1.0840 C.3   175  TYR175      0.0534
     79  CG        21.1380   29.1270    2.2650 C.ar  175  TYR175     -0.0201
     80  CD1       20.7230   30.1680    3.0880 C.ar  175  TYR175     -0.0009
     81  CD2       20.6730   27.8360    2.5360 C.ar  175  TYR175     -0.0009
     82  CE1       19.8640   29.9350    4.1470 C.ar  175  TYR175      0.0417
     83  CE2       19.8130   27.5960    3.5950 C.ar  175  TYR175      0.0417
     84  CZ        19.4130   28.6500    4.3890 C.ar  175  TYR175      0.1957
     85  OH        18.5360   28.4330    5.4210 O.3   175  TYR175     -0.2866
     86  N         15.5850   33.9790    1.7320 N.3   202  LYS202     -0.1245
     87  CA        16.8960   34.3090    2.3280 C.3   202  LYS202      0.1561
     88  C         17.5300   35.6090    1.8450 C.2   202  LYS202      0.2260
     89  O         17.2530   36.6670    2.3920 O.2   202  LYS202     -0.2867
     90  CB        17.8820   33.1540    2.1190 C.3   202  LYS202      0.0271
     91  CG        17.2770   31.7660    2.2570 C.3   202  LYS202      0.0035
     92  CD        16.7140   31.5530    3.6430 C.3   202  LYS202      0.0206
     93  CE        15.8590   30.3050    3.7060 C.3   202  LYS202      0.1093
     94  NZ        15.4090   30.1460    5.1060 N.3   202  LYS202     -0.1314
     95  N          6.4430   33.6390    1.4100 N.3   210  ARG210     -0.1245
     96  CA         6.2750   32.2090    1.1630 C.3   210  ARG210      0.1563
     97  C          6.2700   31.9520   -0.3400 C.2   210  ARG210      0.2260
     98  O          5.3180   31.3850   -0.8820 O.2   210  ARG210     -0.2867
     99  CB         4.9920   31.6570    1.8100 C.3   210  ARG210      0.0307
    100  CG         4.7630   32.0770    3.2610 C.3   210  ARG210      0.0489
    101  CD         5.9280   31.7170    4.1610 C.3   210  ARG210      0.2205
    102  NE         6.2930   30.3120    4.0480 N.pl3 210  ARG210     -0.0865
    103  CZ         7.4490   29.8790    3.5440 C.cat 210  ARG210      0.5346
    104  NH1        8.3540   30.7440    3.0930 N.pl3 210  ARG210      0.1354
    105  NH2        7.7230   28.5840    3.5430 N.pl3 210  ARG210      0.1354
    106  N         20.3440   28.9470   17.0340 N.3   310  ARG310     -0.1245
    107  CA        19.7220   27.6990   16.6610 C.3   310  ARG310      0.1563
    108  C         20.6190   26.5810   17.1520 C.2   310  ARG310      0.2260
    109  O         21.7430   26.4280   16.6880 O.2   310  ARG310     -0.2867
    110  CB        19.5800   27.6430   15.1410 C.3   310  ARG310      0.0307
    111  CG        18.8180   26.4590   14.5950 C.3   310  ARG310      0.0489
    112  CD        17.3770   26.4520   15.0960 C.3   310  ARG310      0.2205
    113  NE        16.4420   25.9550   14.0900 N.pl3 310  ARG310     -0.0865
    114  CZ        16.4710   24.7320   13.5650 C.cat 310  ARG310      0.5346
    115  NH1       17.3950   23.8550   13.9470 N.pl3 310  ARG310      0.1354
    116  NH2       15.5780   24.3890   12.6410 N.pl3 310  ARG310      0.1354
    117  N         24.1980   27.1300   15.4640 N.3   323  ARG323     -0.1245
    118  CA        24.1660   27.8390   14.1920 C.3   323  ARG323      0.1563
    119  C         23.7940   29.3000   14.4500 C.2   323  ARG323      0.2260
    120  O         22.8170   29.5980   15.1450 O.2   323  ARG323     -0.2867
    121  CB        23.1810   27.1620   13.2350 C.3   323  ARG323      0.0307
    122  CG        23.2700   27.6610   11.8040 C.3   323  ARG323      0.0489
    123  CD        21.9080   28.0630   11.2910 C.3   323  ARG323      0.2205
    124  NE        21.1440   26.9280   10.8110 N.pl3 323  ARG323     -0.0865
    125  CZ        19.8160   26.8710   10.7670 C.cat 323  ARG323      0.5346
    126  NH1       19.0710   27.8840   11.1910 N.pl3 323  ARG323      0.1354
    127  NH2       19.2360   25.8070   10.2490 N.pl3 323  ARG323      0.1354
@<TRIPOS>BOND
     1    76    77    2
     2    76    75    1
     3    98    97    2
     4    74    75    1
     5    97    96    1
     6    75    78    1
     7    34    35    1
     8    36    37    2
     9    36    35    1
    10    78    79    1
    11    96    95    1
    12    96    99    1
    13    35    38    1
    14    86    87    1
    15    99   100    1
    16    88    87    1
    17    88    89    2
    18    90    91    1
    19    90    87    1
    20    91    92    1
    21    79    81   ar
    22    79    80   ar
    23    38    39    1
    24    81    83   ar
    25    80    82   ar
    26   104   103    1
    27   100   101    1
    28   105   103    1
    29   103   102    2
    30    83    84   ar
    31    92    93    1
    32    39    40   ar
    33    39    41   ar
    34    93    94    1
    35   102   101    1
    36    82    84   ar
    37    49    51   ar
    38    49    47   ar
    39    51    52   ar
    40    84    85    1
    41    61    60    2
    42    66    67    1
    43    60    59    1
    44    46    47    1
    45    46    43    1
    46    62    59    1
    47    62    63    1
    48    47    48   ar
    49    52    53    1
    50    52    50   ar
    51    70    67    1
    52    70    71    1
    53    59    58    1
    54    65    64    1
    55    67    68    1
    56    45    44    2
    57    63    64    1
    58    42    43    1
    59    29    28    2
    60    43    44    1
    61    48    50   ar
    62    69    68    2
    63    58    56   am
    64    44    54   am
    65    73    71   am
    66    71    72    2
    67    56    57    2
    68    56    55    1
    69    28    27    1
    70    30    31    1
    71    30    27    1
    72    54    55    1
    73    33    31   am
    74    31    32    2
    75    27    26    1
    76    24    23    2
    77    26    23   am
    78    23    22    1
    79   127   125    1
    80     9    11   ar
    81     9     7   ar
    82    12    11    1
    83    11    10   ar
    84     7     6   ar
    85   125   124    2
    86   125   126    1
    87   124   123    1
    88    10     8   ar
    89     6     8   ar
    90     6     5    1
    91    22    25    1
    92    22    21    1
    93     5     2    1
    94   123   122    1
    95   122   121    1
    96    21    15   am
    97     2     1    1
    98     2     3    1
    99   116   114    1
   100    16    15    2
   101    15    14    1
   102   121   118    1
   103   114   115    1
   104   114   113    2
   105     3     4    2
   106   113   112    1
   107   118   119    1
   108   118   117    1
   109    13    14    1
   110    14    17    1
   111   119   120    2
   112   111   112    1
   113   111   110    1
   114    19    18    2
   115   110   107    1
   116    18    17    1
   117    18    20   am
   118   107   106    1
   119   107   108    1
   120   109   108    2
