@<TRIPOS>MOLECULE
tmp/1geyA00.pdb
 177 164 0 0 0
SMALL
GASTEIGER

@<TRIPOS>ATOM
      1  N          9.2260   31.5650   19.0710 N.3    15  ARG15      -0.1245
      2  CA         8.5010   32.8270   18.9070 C.3    15  ARG15       0.1563
      3  C          7.0210   32.6690   19.2580 C.2    15  ARG15       0.2260
      4  O          6.3220   31.9190   18.5440 O.2    15  ARG15      -0.2867
      5  CB         8.6560   33.3480   17.4690 C.3    15  ARG15       0.0307
      6  CG        10.1060   33.4830   17.0140 C.3    15  ARG15       0.0489
      7  CD        10.2370   34.1140   15.6380 C.3    15  ARG15       0.2205
      8  NE        11.6350   34.2100   15.2180 N.pl3  15  ARG15      -0.0865
      9  CZ        12.0360   34.5100   13.9840 C.cat  15  ARG15       0.5346
     10  NH1       11.1470   34.7470   13.0270 N.pl3  15  ARG15       0.1354
     11  NH2       13.3320   34.5780   13.7070 N.pl3  15  ARG15       0.1354
     12  N         18.2670   32.9630   14.3210 N.3    19  ASN19      -0.1225
     13  CA        17.9530   31.5400   14.3140 C.3    19  ASN19       0.1785
     14  C         17.2410   30.9610   13.0950 C.2    19  ASN19       0.2597
     15  O         17.1550   29.7460   12.9680 O.2    19  ASN19      -0.2718
     16  CB        17.1030   31.2240   15.5460 C.3    19  ASN19       0.1169
     17  CG        15.7440   31.9200   15.5140 C.2    19  ASN19       0.2627
     18  OD1       15.6400   33.1030   15.1680 O.2    19  ASN19      -0.2716
     19  ND2       14.6960   31.1810   15.8640 N.am   19  ASN19      -0.0877
     20  N         16.7330   31.8130   12.2080 N.am   20  ALA20      -0.1966
     21  CA        15.9800   31.3360   11.0460 C.3    20  ALA20       0.1728
     22  C         16.5620   31.6400    9.6640 C.2    20  ALA20       0.2616
     23  O         15.9270   31.3480    8.6490 O.2    20  ALA20      -0.2715
     24  CB        14.5540   31.8400   11.1300 C.3    20  ALA20       0.0334
     25  N         17.7680   32.2040    9.6400 N.am   21  ASN21      -0.1958
     26  CA        18.4790   32.5590    8.4100 C.3    21  ASN21       0.1819
     27  C         17.7930   33.6270    7.5670 C.2    21  ASN21       0.2621
     28  O         17.9640   33.6950    6.3490 O.2    21  ASN21      -0.2715
     29  CB        18.7960   31.3120    7.5780 C.3    21  ASN21       0.1195
     30  CG        19.7650   30.3820    8.2760 C.2    21  ASN21       0.2630
     31  OD1       20.5190   30.8030    9.1480 O.2    21  ASN21      -0.2716
     32  ND2       19.7500   29.1140    7.8990 N.am   21  ASN21      -0.0877
     33  N         17.0570   34.4960    8.2370 N.am   22  GLU22      -0.1977
     34  CA        16.3580   35.5760    7.5640 C.3    22  GLU22       0.1602
     35  C         17.2830   36.7850    7.4120 C.2    22  GLU22       0.2287
     36  O         18.2940   36.9040    8.1090 O.2    22  GLU22      -0.2864
     37  CB        15.1400   35.9990    8.3990 C.3    22  GLU22       0.0415
     38  CG        14.2490   34.8520    8.8360 C.3    22  GLU22       0.1163
     39  CD        13.4970   35.1430   10.1200 C.2    22  GLU22       0.3649
     40  OE1       14.1120   35.6430   11.0830 O.co2  22  GLU22      -0.2457
     41  OE2       12.2890   34.8500   10.1760 O.co2  22  GLU22      -0.2457
     42  N          7.0910   28.7530   -1.2240 N.3    67  GLY67      -0.1210
     43  CA         8.3950   28.4430   -0.6620 C.3    67  GLY67       0.1956
     44  C          9.0200   27.1930   -1.2590 C.2    67  GLY67       0.2612
     45  O          8.3760   26.4620   -2.0060 O.2    67  GLY67      -0.2717
     46  N         10.2930   26.9600   -0.9480 N.am   68  ALA68      -0.1965
     47  CA        11.0030   25.7730   -1.4240 C.3    68  ALA68       0.1728
     48  C         10.4540   24.5520   -0.6890 C.2    68  ALA68       0.2616
     49  O         10.6230   23.4230   -1.1400 O.2    68  ALA68      -0.2715
     50  CB        12.5240   25.9160   -1.1800 C.3    68  ALA68       0.0334
     51  N          9.7830   24.7900    0.4390 N.am   69  ASP69      -0.1971
     52  CA         9.1800   23.7230    1.2390 C.3    69  ASP69       0.1709
     53  C          8.0910   22.9920    0.4590 C.2    69  ASP69       0.2293
     54  O          7.9860   21.7630    0.5270 O.2    69  ASP69      -0.2864
     55  CB         8.5930   24.2850    2.5440 C.3    69  ASP69       0.1436
     56  CG         9.6120   24.3390    3.6860 C.2    69  ASP69       0.3671
     57  OD1       10.6160   23.5910    3.6590 O.co2  69  ASP69      -0.2456
     58  OD2        9.3910   25.1260    4.6300 O.co2  69  ASP69      -0.2456
     59  N          9.6800   20.7780   -2.0850 N.3    72  ILE72      -0.1245
     60  CA        10.1710   19.5010   -1.5580 C.3    72  ILE72       0.1561
     61  C          9.0410   18.4750   -1.5400 C.2    72  ILE72       0.2260
     62  O          9.2540   17.3080   -1.8690 O.2    72  ILE72      -0.2867
     63  CB        10.7300   19.6540   -0.1210 C.3    72  ILE72       0.0252
     64  CG1       12.0140   20.4920   -0.1340 C.3    72  ILE72       0.0019
     65  CG2       10.9780   18.2830    0.4980 C.3    72  ILE72       0.0019
     66  CD1       12.3700   21.0980    1.2180 C.3    72  ILE72       0.0001
     67  N         19.0610   19.8460    6.2760 N.3    94  TYR94      -0.1241
     68  CA        17.7310   20.4270    6.4700 C.3    94  TYR94       0.1605
     69  C         16.6990   19.3510    6.8520 C.2    94  TYR94       0.2264
     70  O         16.5550   18.3360    6.1740 O.2    94  TYR94      -0.2867
     71  CB        17.3090   21.1850    5.2100 C.3    94  TYR94       0.0534
     72  CG        16.0510   22.0090    5.3690 C.ar   94  TYR94      -0.0201
     73  CD1       15.8420   22.7980    6.5020 C.ar   94  TYR94      -0.0009
     74  CD2       15.0680   22.0070    4.3840 C.ar   94  TYR94      -0.0009
     75  CE1       14.6860   23.5590    6.6440 C.ar   94  TYR94       0.0417
     76  CE2       13.9060   22.7710    4.5180 C.ar   94  TYR94       0.0417
     77  CZ        13.7240   23.5400    5.6460 C.ar   94  TYR94       0.1957
     78  OH        12.5850   24.2980    5.7660 O.3    94  TYR94      -0.2866
     79  N         21.4310   19.3290   -0.2240 N.3   137  CYS137     -0.1235
     80  CA        21.4620   20.7570    0.0400 C.3   137  CYS137      0.1677
     81  C         22.8820   21.2650   -0.1960 C.2   137  CYS137      0.2270
     82  O         23.8280   20.8150    0.4530 O.2   137  CYS137     -0.2867
     83  CB        21.0290   21.0270    1.4870 C.3   137  CYS137      0.0956
     84  SG        20.7680   22.7570    1.8770 S.3   137  CYS137     -0.0801
     85  N         22.8410   23.1950    4.9420 N.3   141  ASN141     -0.1240
     86  CA        22.2940   23.7990    6.1480 C.3   141  ASN141      0.1653
     87  C         22.3510   22.6010    7.1040 C.2   141  ASN141      0.2266
     88  O         21.8490   21.5270    6.7750 O.2   141  ASN141     -0.2867
     89  CB        20.8430   24.2340    5.8990 C.3   141  ASN141      0.1155
     90  CG        20.2190   24.9760    7.0880 C.2   141  ASN141      0.2627
     91  OD1       20.9190   25.4910    7.9590 O.2   141  ASN141     -0.2716
     92  ND2       18.8910   25.0460    7.1080 N.am  141  ASN141     -0.0877
     93  N         19.1140   21.4810   -3.3560 N.3   168  ASP168     -0.1239
     94  CA        18.4890   22.5750   -2.6270 C.3   168  ASP168      0.1674
     95  C         19.4600   23.7520   -2.6100 C.2   168  ASP168      0.2266
     96  O         20.4830   23.7150   -1.9340 O.2   168  ASP168     -0.2867
     97  CB        18.1390   22.1440   -1.1970 C.3   168  ASP168      0.1410
     98  CG        17.2270   23.1370   -0.4850 C.2   168  ASP168      0.3668
     99  OD1       17.2550   24.3520   -0.7910 O.co2 168  ASP168     -0.2456
    100  OD2       16.4720   22.6880    0.3980 O.co2 168  ASP168     -0.2456
    101  N         18.6510   26.9470   -1.6730 N.3   170  ALA170     -0.1231
    102  CA        18.0030   28.0040   -0.9150 C.3   170  ALA170      0.1694
    103  C         18.9630   29.1330   -0.5160 C.2   170  ALA170      0.2592
    104  O         18.5280   30.2530   -0.2370 O.2   170  ALA170     -0.2718
    105  CB        17.3730   27.4100    0.3190 C.3   170  ALA170      0.0304
    106  N         20.2630   28.8330   -0.4740 N.am  171  TYR171     -0.1976
    107  CA        21.2840   29.8190   -0.0940 C.3   171  TYR171      0.1639
    108  C         22.2840   30.1280   -1.1970 C.2   171  TYR171      0.2290
    109  O         23.3130   30.7500   -0.9350 O.2   171  TYR171     -0.2864
    110  CB        22.0550   29.3340    1.1370 C.3   171  TYR171      0.0560
    111  CG        21.1770   29.0440    2.3220 C.ar  171  TYR171     -0.0198
    112  CD1       20.6880   30.0740    3.1150 C.ar  171  TYR171     -0.0009
    113  CD2       20.7680   27.7400    2.6000 C.ar  171  TYR171     -0.0009
    114  CE1       19.8000   29.8130    4.1520 C.ar  171  TYR171      0.0417
    115  CE2       19.8850   27.4720    3.6290 C.ar  171  TYR171      0.0417
    116  CZ        19.4020   28.5100    4.3970 C.ar  171  TYR171      0.1957
    117  OH        18.5060   28.2410    5.4050 O.3   171  TYR171     -0.2866
    118  N         14.5080   30.0320   -3.5890 N.3   195  THR195     -0.1218
    119  CA        13.5730   30.7220   -2.6990 C.3   195  THR195      0.1862
    120  C         13.8250   32.2210   -2.6360 C.2   195  THR195      0.2287
    121  O         14.8850   32.6970   -3.0420 O.2   195  THR195     -0.2866
    122  CB        13.6590   30.1600   -1.2580 C.3   195  THR195      0.1770
    123  OG1       12.7360   30.8560   -0.4190 O.3   195  THR195     -0.2211
    124  CG2       15.0670   30.3550   -0.6790 C.3   195  THR195      0.0375
    125  N         13.1010   33.6600    0.3140 N.3   197  SER197     -0.1202
    126  CA        13.1830   33.7590    1.7780 C.3   197  SER197      0.2020
    127  C         14.4850   34.2360    2.4450 C.2   197  SER197      0.2618
    128  O         14.4490   34.7370    3.5770 O.2   197  SER197     -0.2717
    129  CB        12.8020   32.4140    2.3980 C.3   197  SER197      0.2103
    130  OG        11.4730   32.0650    2.0850 O.3   197  SER197     -0.2182
    131  N         15.6320   34.0440    1.7900 N.am  198  LYS198     -0.1979
    132  CA        16.9110   34.4360    2.3920 C.3   198  LYS198      0.1596
    133  C         17.5000   35.7420    1.8600 C.2   198  LYS198      0.2287
    134  O         17.1710   36.8150    2.3620 O.2   198  LYS198     -0.2864
    135  CB        17.9240   33.2970    2.2700 C.3   198  LYS198      0.0298
    136  CG        17.3460   31.9140    2.5350 C.3   198  LYS198      0.0038
    137  CD        16.7340   31.8040    3.9210 C.3   198  LYS198      0.0206
    138  CE        15.9890   30.4890    4.0760 C.3   198  LYS198      0.1093
    139  NZ        15.4940   30.3090    5.4700 N.3   198  LYS198     -0.1314
    140  N         11.0540   36.2430    3.3930 N.3   203  ALA203     -0.1245
    141  CA        10.5860   35.0170    4.0410 C.3   203  ALA203      0.1562
    142  C          9.0790   35.0710    4.3150 C.2   203  ALA203      0.2260
    143  O          8.3920   34.0470    4.2740 O.2   203  ALA203     -0.2867
    144  CB        11.3490   34.7770    5.3340 C.3   203  ALA203      0.0290
    145  N          6.4760   33.7100    1.4920 N.3   206  ARG206     -0.1245
    146  CA         6.2990   32.2760    1.2700 C.3   206  ARG206      0.1563
    147  C          6.2810   32.0070   -0.2300 C.2   206  ARG206      0.2260
    148  O          5.3290   31.4410   -0.7600 O.2   206  ARG206     -0.2867
    149  CB         5.0090   31.7590    1.9240 C.3   206  ARG206      0.0307
    150  CG         4.8300   32.0840    3.4190 C.3   206  ARG206      0.0489
    151  CD         6.0060   31.6270    4.2880 C.3   206  ARG206      0.2205
    152  NE         6.3530   30.2230    4.0740 N.pl3 206  ARG206     -0.0865
    153  CZ         7.5440   29.8120    3.6490 C.cat 206  ARG206      0.5346
    154  NH1        8.5070   30.6980    3.3990 N.pl3 206  ARG206      0.1354
    155  NH2        7.7580   28.5240    3.4350 N.pl3 206  ARG206      0.1354
    156  N         20.3410   28.9850   17.1260 N.3   306  ARG306     -0.1245
    157  CA        19.7130   27.7190   16.7830 C.3   306  ARG306      0.1563
    158  C         20.6240   26.5900   17.2420 C.2   306  ARG306      0.2260
    159  O         21.7360   26.4500   16.7550 O.2   306  ARG306     -0.2867
    160  CB        19.4720   27.6390   15.2690 C.3   306  ARG306      0.0307
    161  CG        18.9520   26.2950   14.7650 C.3   306  ARG306      0.0489
    162  CD        17.5400   26.0050   15.2530 C.3   306  ARG306      0.2205
    163  NE        16.5740   26.9700   14.7310 N.pl3 306  ARG306     -0.0865
    164  CZ        15.8180   26.7690   13.6530 C.cat 306  ARG306      0.5346
    165  NH1       15.9090   25.6280   12.9770 N.pl3 306  ARG306      0.1354
    166  NH2       14.9870   27.7190   13.2350 N.pl3 306  ARG306      0.1354
    167  N         24.1350   27.2070   15.5460 N.3   319  ARG319     -0.1245
    168  CA        24.0700   27.8480   14.2410 C.3   319  ARG319      0.1563
    169  C         23.6980   29.3120   14.4630 C.2   319  ARG319      0.2260
    170  O         22.6830   29.6210   15.0880 O.2   319  ARG319     -0.2867
    171  CB        23.0620   27.1300   13.3330 C.3   319  ARG319      0.0307
    172  CG        23.1860   27.4830   11.8550 C.3   319  ARG319      0.0489
    173  CD        21.8710   27.9940   11.3080 C.3   319  ARG319      0.2205
    174  NE        21.0070   26.9060   10.8760 N.pl3 319  ARG319     -0.0865
    175  CZ        19.6800   26.9720   10.7970 C.cat 319  ARG319      0.5346
    176  NH1       19.0270   28.0800   11.1370 N.pl3 319  ARG319      0.1354
    177  NH2       19.0050   25.9320   10.3290 N.pl3 319  ARG319      0.1354
@<TRIPOS>BOND
     1   118   119    1
     2    93    94    1
     3   121   120    2
     4   119   120    1
     5   119   122    1
     6    94    95    1
     7    94    97    1
     8    95    96    2
     9    59    60    1
    10    45    44    2
    11    62    61    2
    12   101   102    1
    13    60    61    1
    14    60    63    1
    15    47    50    1
    16    47    46    1
    17    47    48    1
    18    44    46   am
    19    44    43    1
    20   122   124    1
    21   122   123    1
    22    42    43    1
    23   108   109    2
    24   108   107    1
    25    97    98    1
    26    49    48    2
    27   102   103    1
    28   102   105    1
    29    99    98   ar
    30   148   147    2
    31    48    51   am
    32   103   106   am
    33   103   104    2
    34    98   100   ar
    35   106   107    1
    36   147   146    1
    37    79    80    1
    38    81    80    1
    39    81    82    2
    40    64    63    1
    41    64    66    1
    42    63    65    1
    43   107   110    1
    44    80    83    1
    45   125   126    1
    46    51    52    1
    47    53    54    2
    48    53    52    1
    49   110   111    1
    50    52    55    1
    51   146   145    1
    52   146   149    1
    53    83    84    1
    54   126   129    1
    55   126   127    1
    56   131   132    1
    57   131   127   am
    58   133   134    2
    59   133   132    1
    60   149   150    1
    61   130   129    1
    62   135   132    1
    63   135   136    1
    64   111   113   ar
    65   111   112   ar
    66   127   128    2
    67   136   137    1
    68    55    56    1
    69   113   115   ar
    70   112   114   ar
    71   140   141    1
    72   154   153    1
    73   150   151    1
    74   155   153    1
    75   115   116   ar
    76   153   152    2
    77    57    56   ar
    78    56    58   ar
    79   137   138    1
    80   141   142    1
    81   141   144    1
    82   152   151    1
    83   138   139    1
    84   114   116   ar
    85   143   142    2
    86    74    76   ar
    87    74    72   ar
    88   116   117    1
    89    76    77   ar
    90    85    86    1
    91    71    72    1
    92    71    68    1
    93    72    73   ar
    94    77    78    1
    95    77    75   ar
    96    89    86    1
    97    89    90    1
    98    86    87    1
    99    70    69    2
   100    67    68    1
   101    28    27    2
   102    68    69    1
   103    73    75   ar
   104    88    87    2
   105    90    92   am
   106    90    91    2
   107    35    34    1
   108    35    36    2
   109    34    33    1
   110    34    37    1
   111    27    33   am
   112    27    26    1
   113    29    30    1
   114    29    26    1
   115    32    30   am
   116    30    31    2
   117    37    38    1
   118    26    25    1
   119    23    22    2
   120    38    39    1
   121    25    22   am
   122    22    21    1
   123    39    41   ar
   124    39    40   ar
   125   177   175    1
   126   175   174    2
   127   175   176    1
   128   174   173    1
   129    21    24    1
   130    21    20    1
   131   173   172    1
   132   172   171    1
   133    20    14   am
   134    15    14    2
   135   165   164    1
   136    10     9    1
   137    14    13    1
   138   166   164    1
   139   171   168    1
   140   164   163    2
   141    11     9    1
   142     9     8    2
   143   168   169    1
   144   168   167    1
   145    13    12    1
   146    13    16    1
   147   169   170    2
   148   163   162    1
   149   161   162    1
   150   161   160    1
   151    18    17    2
   152     8     7    1
   153   160   157    1
   154    17    16    1
   155    17    19   am
   156     7     6    1
   157   159   158    2
   158   157   156    1
   159   157   158    1
   160     6     5    1
   161     5     2    1
   162     4     3    2
   163     2     1    1
   164     2     3    1
