@<TRIPOS>MOLECULE
tmp/1gfwA00.pdb
 104 100 0 0 0
SMALL
GASTEIGER

@<TRIPOS>ATOM
      1  N         30.6380   42.2690   26.2010 N.3    33  MET33      -0.1230
      2  CA        31.1850   40.9350   26.3320 C.3    33  MET33       0.1702
      3  C         31.0720   40.2270   25.0100 C.2    33  MET33       0.2593
      4  O         30.1390   40.4730   24.2430 O.2    33  MET33      -0.2718
      5  CB        30.4420   40.1410   27.3990 C.3    33  MET33       0.0401
      6  CG        31.0110   40.2880   28.8070 C.3    33  MET33       0.0596
      7  SD        32.7520   39.7320   29.0320 S.3    33  MET33      -0.1393
      8  CE        33.0390   40.4060   30.6990 C.3    33  MET33       0.0692
      9  N         32.0230   39.3380   24.7470 N.am   34  THR34      -0.1939
     10  CA        32.0220   38.6120   23.5010 C.3    34  THR34       0.2028
     11  C         31.3090   37.2910   23.6450 C.2    34  THR34       0.2643
     12  O         31.0720   36.7920   24.7430 O.2    34  THR34      -0.2714
     13  CB        33.4240   38.3300   23.0380 C.3    34  THR34       0.1808
     14  OG1       33.9740   37.2710   23.8350 O.3    34  THR34      -0.2208
     15  CG2       34.2850   39.5920   23.2000 C.3    34  THR34       0.0379
     16  N         30.9520   36.7350   22.5050 N.am   35  SER35      -0.1935
     17  CA        30.2940   35.4690   22.4870 C.3    35  SER35       0.2055
     18  C         31.2940   34.3660   22.8450 C.2    35  SER35       0.2643
     19  O         32.4950   34.4270   22.5640 O.2    35  SER35      -0.2714
     20  CB        29.7100   35.2420   21.1130 C.3    35  SER35       0.2130
     21  OG        30.6550   35.6790   20.1690 O.3    35  SER35      -0.2179
     22  N         30.7580   33.3500   23.4890 N.am   36  ARG36      -0.1963
     23  CA        31.5320   32.2290   23.9130 C.3    36  ARG36       0.1729
     24  C         31.3900   31.2370   22.7880 C.2    36  ARG36       0.2616
     25  O         30.3000   31.0180   22.2770 O.2    36  ARG36      -0.2715
     26  CB        30.9380   31.6890   25.2080 C.3    36  ARG36       0.0348
     27  CG        30.6620   32.7710   26.2340 C.3    36  ARG36       0.0492
     28  CD        29.8480   32.2620   27.3800 C.3    36  ARG36       0.2205
     29  NE        30.5930   31.2630   28.1210 N.pl3  36  ARG36      -0.0865
     30  CZ        30.2160   29.9990   28.2810 C.cat  36  ARG36       0.5346
     31  NH1       29.0690   29.5740   27.7570 N.pl3  36  ARG36       0.1354
     32  NH2       31.0230   29.1660   28.9300 N.pl3  36  ARG36       0.1354
     33  N         32.4990   30.6580   22.3750 N.am   37  SER37      -0.1950
     34  CA        32.4500   29.6850   21.3180 C.3    37  SER37       0.1924
     35  C         32.8450   28.3590   21.9260 C.2    37  SER37       0.2314
     36  O         33.6500   28.2980   22.8510 O.2    37  SER37      -0.2863
     37  CB        33.3980   30.0840   20.1860 C.3    37  SER37       0.2116
     38  OG        34.5240   30.7900   20.6810 O.3    37  SER37      -0.2180
     39  N         28.2110   29.9230   30.9800 N.3    92  SER92      -0.1202
     40  CA        28.2670   31.3270   30.6420 C.3    92  SER92       0.2020
     41  C         29.5160   32.0100   31.1030 C.2    92  SER92       0.2619
     42  O         30.4930   31.3580   31.4680 O.2    92  SER92      -0.2717
     43  CB        27.0800   32.0420   31.2590 C.3    92  SER92       0.2103
     44  OG        27.1010   33.3920   30.8960 O.3    92  SER92      -0.2182
     45  N         29.4670   33.3410   31.0480 N.am   93  HIS93      -0.1961
     46  CA        30.5490   34.2120   31.5080 C.3    93  HIS93       0.1787
     47  C         30.2500   34.3310   32.9950 C.2    93  HIS93       0.2620
     48  O         29.1320   34.0990   33.4050 O.2    93  HIS93      -0.2715
     49  CB        30.4310   35.6160   30.8920 C.3    93  HIS93       0.0785
     50  CG        31.0520   35.7590   29.5390 C.ar   93  HIS93       0.0821
     51  ND1       32.4050   35.6060   29.3170 N.ar   93  HIS93      -0.2267
     52  CD2       30.5050   36.0710   28.3390 C.ar   93  HIS93       0.1154
     53  CE1       32.6630   35.8150   28.0370 C.ar   93  HIS93       0.1986
     54  NE2       31.5270   36.0980   27.4230 N.ar   93  HIS93      -0.2212
     55  N         31.2260   34.6960   33.8040 N.am   94  GLY94      -0.1954
     56  CA        30.9410   34.8400   35.2090 C.3    94  GLY94       0.1869
     57  C         31.9720   35.6390   35.9820 C.2    94  GLY94       0.2309
     58  O         32.8900   36.2500   35.4240 O.2    94  GLY94      -0.2863
     59  N         26.3580   35.6140   34.1980 N.3   100  PHE100     -0.1241
     60  CA        25.6970   36.5480   33.3120 C.3   100  PHE100      0.1605
     61  C         24.5500   36.0280   32.4550 C.2   100  PHE100      0.2264
     62  O         24.6520   34.9740   31.8060 O.2   100  PHE100     -0.2867
     63  CB        26.7500   37.1960   32.4190 C.3   100  PHE100      0.0534
     64  CG        27.6860   38.1010   33.1610 C.ar  100  PHE100     -0.0203
     65  CD1       27.3580   39.4440   33.3760 C.ar  100  PHE100     -0.0042
     66  CD2       28.8840   37.6140   33.6810 C.ar  100  PHE100     -0.0042
     67  CE1       28.2050   40.2850   34.0960 C.ar  100  PHE100     -0.0003
     68  CE2       29.7400   38.4520   34.4050 C.ar  100  PHE100     -0.0003
     69  CZ        29.3930   39.7870   34.6090 C.ar  100  PHE100     -0.0000
     70  N         29.9260   26.4260   34.6350 N.3   133  GLN133     -0.1231
     71  CA        31.0240   26.6690   33.7120 C.3   133  GLN133      0.1698
     72  C         31.0090   28.1800   33.3940 C.2   133  GLN133      0.2592
     73  O         30.2480   28.6350   32.5260 O.2   133  GLN133     -0.2718
     74  CB        30.8580   25.8110   32.4400 C.3   133  GLN133      0.0381
     75  CG        31.8010   26.1420   31.2670 C.3   133  GLN133      0.0905
     76  CD        33.2600   26.1500   31.6720 C.2   133  GLN133      0.2608
     77  OE1       33.7270   25.2070   32.2870 O.2   133  GLN133     -0.2717
     78  NE2       33.9840   27.2120   31.3290 N.am  133  GLN133     -0.0878
     79  N         31.8500   28.9320   34.1200 N.am  134  ALA134     -0.1966
     80  CA        31.9720   30.3830   33.9950 C.3   134  ALA134      0.1728
     81  C         33.1710   30.8910   34.8230 C.2   134  ALA134      0.2616
     82  O         33.6800   30.1620   35.6520 O.2   134  ALA134     -0.2715
     83  CB        30.6890   31.0300   34.4660 C.3   134  ALA134      0.0334
     84  N         33.6300   32.1230   34.6020 N.am  135  CYS135     -0.1968
     85  CA        34.7730   32.6350   35.3670 C.3   135  CYS135      0.1712
     86  C         34.3300   33.0130   36.7650 C.2   135  CYS135      0.2296
     87  O         33.1810   33.3630   36.9850 O.2   135  CYS135     -0.2864
     88  CB        35.4600   33.8300   34.6420 C.3   135  CYS135      0.0983
     89  SG        36.2720   33.1920   33.1420 S.3   135  CYS135     -0.0798
     90  N         39.2790   36.7310   37.4750 N.3   138  THR138     -0.1218
     91  CA        40.2020   36.7940   36.3590 C.3   138  THR138      0.1862
     92  C         41.6330   36.3750   36.6830 C.2   138  THR138      0.2287
     93  O         42.5850   36.9060   36.1230 O.2   138  THR138     -0.2866
     94  CB        40.1780   38.2360   35.7280 C.3   138  THR138      0.1770
     95  OG1       40.4090   39.2340   36.7390 O.3   138  THR138     -0.2211
     96  CG2       38.8260   38.5010   35.0730 C.3   138  THR138      0.0375
     97  N         44.8410   33.6650   36.7920 N.3   140  LEU140     -0.1245
     98  CA        45.3710   32.6480   35.8920 C.3   140  LEU140      0.1561
     99  C         46.3060   31.7130   36.6340 C.2   140  LEU140      0.2260
    100  O         47.2370   32.1500   37.2920 O.2   140  LEU140     -0.2867
    101  CB        46.1230   33.3020   34.7310 C.3   140  LEU140      0.0270
    102  CG        45.2760   34.1590   33.7860 C.3   140  LEU140      0.0019
    103  CD1       46.0220   35.4420   33.4490 C.3   140  LEU140      0.0001
    104  CD2       44.9570   33.4030   32.5480 C.3   140  LEU140      0.0001
@<TRIPOS>BOND
     1    21    20    1
     2    37    38    1
     3    37    34    1
     4    20    17    1
     5    34    35    1
     6    34    33    1
     7    35    36    2
     8    25    24    2
     9    33    24   am
    10    17    16    1
    11    17    18    1
    12    16    11   am
    13    19    18    2
    14    24    23    1
    15    18    22   am
    16    13    15    1
    17    13    10    1
    18    13    14    1
    19    22    23    1
    20    10    11    1
    21    10     9    1
    22    11    12    2
    23    23    26    1
    24     4     3    2
    25     9     3   am
    26     3     2    1
    27    26    27    1
    28     1     2    1
    29    27    28    1
    30     2     5    1
    31    28    29    1
    32     5     6    1
    33    54    53   ar
    34    54    52   ar
    35    31    30    1
    36    53    51   ar
    37    29    30    2
    38    30    32    1
    39    52    50   ar
    40     6     7    1
    41     7     8    1
    42    51    50   ar
    43    50    49    1
    44    40    39    1
    45    40    41    1
    46    40    43    1
    47    49    46    1
    48    44    43    1
    49    45    41   am
    50    45    46    1
    51    41    42    2
    52    75    76    1
    53    75    74    1
    54    78    76   am
    55    46    47    1
    56    76    77    2
    57    62    61    2
    58    63    64    1
    59    63    60    1
    60    74    71    1
    61    61    60    1
    62    73    72    2
    63   104   102    1
    64    47    48    2
    65    47    55   am
    66    89    88    1
    67    64    65   ar
    68    64    66   ar
    69    60    59    1
    70    65    67   ar
    71    72    71    1
    72    72    79   am
    73   103   102    1
    74    66    68   ar
    75    71    70    1
    76   102   101    1
    77    55    56    1
    78    80    79    1
    79    80    83    1
    80    80    81    1
    81    67    69   ar
    82    68    69   ar
    83    84    81   am
    84    84    85    1
    85    88    85    1
    86   101    98    1
    87    81    82    2
    88    96    94    1
    89    56    57    1
    90    85    86    1
    91    58    57    2
    92    94    91    1
    93    94    95    1
    94    98    99    1
    95    98    97    1
    96    93    92    2
    97    91    92    1
    98    91    90    1
    99    99   100    2
   100    86    87    2
