@<TRIPOS>MOLECULE
tmp/1gfyA00.pdb
 113 107 0 0 0
SMALL
GASTEIGER

@<TRIPOS>ATOM
      1  N         11.3580   37.7500   18.9780 N.3    44  TYR44      -0.1241
      2  CA        12.2340   38.4550   18.0800 C.3    44  TYR44       0.1605
      3  C         13.6210   37.8140   18.1890 C.2    44  TYR44       0.2264
      4  O         14.2860   37.6820   19.2130 O.2    44  TYR44      -0.2867
      5  CB        12.3180   39.8850   18.5610 C.3    44  TYR44       0.0534
      6  CG        11.0100   40.5780   18.4600 C.ar   44  TYR44      -0.0201
      7  CD1       10.4020   40.7140   17.2100 C.ar   44  TYR44      -0.0009
      8  CD2       10.3520   41.1090   19.5810 C.ar   44  TYR44      -0.0009
      9  CE1        9.1590   41.3510   17.0510 C.ar   44  TYR44       0.0417
     10  CE2        9.1100   41.7790   19.4340 C.ar   44  TYR44       0.0417
     11  CZ         8.5120   41.9290   18.1720 C.ar   44  TYR44       0.1957
     12  OH         7.3300   42.6270   18.0640 O.3    44  TYR44      -0.2866
     13  N         16.4400   38.9710   17.5350 N.3    46  ASN46      -0.1225
     14  CA        17.4590   39.7480   18.1420 C.3    46  ASN46       0.1785
     15  C         17.1150   40.2950   19.5230 C.2    46  ASN46       0.2597
     16  O         17.7280   41.2320   19.9600 O.2    46  ASN46      -0.2718
     17  CB        17.6730   40.9270   17.2560 C.3    46  ASN46       0.1169
     18  CG        16.4420   41.7950   17.1980 C.2    46  ASN46       0.2627
     19  OD1       15.3290   41.3040   17.0790 O.2    46  ASN46      -0.2716
     20  ND2       16.6610   43.1100   17.2780 N.am   46  ASN46      -0.0877
     21  N         16.1270   39.7620   20.1960 N.am   47  VAL47      -0.1980
     22  CA        15.8590   40.1610   21.5970 C.3    47  VAL47       0.1595
     23  C         15.6680   38.9000   22.5100 C.2    47  VAL47       0.2287
     24  O         14.7430   38.0790   22.4730 O.2    47  VAL47      -0.2864
     25  CB        14.8500   41.3070   21.8630 C.3    47  VAL47       0.0276
     26  CG1       14.2130   42.1330   20.7100 C.3    47  VAL47       0.0022
     27  CG2       13.9620   41.0470   23.1290 C.3    47  VAL47       0.0022
     28  N          1.1710   41.7710   17.9570 N.3   118  LYS118     -0.1245
     29  CA         2.3640   42.0840   18.7170 C.3   118  LYS118      0.1561
     30  C          2.5030   41.1910   20.0170 C.2   118  LYS118      0.2260
     31  O          3.4740   41.2660   20.7510 O.2   118  LYS118     -0.2867
     32  CB         2.3450   43.6590   18.9240 C.3   118  LYS118      0.0271
     33  CG         2.8640   44.5280   17.6600 C.3   118  LYS118      0.0035
     34  CD         4.3150   44.2180   17.2610 C.3   118  LYS118      0.0206
     35  CE         5.2830   45.0570   16.4190 C.3   118  LYS118      0.1093
     36  NZ         6.4210   44.1690   15.9840 N.3   118  LYS118     -0.1314
     37  N          3.9400   51.4790   19.8620 N.3   179  ASP179     -0.1225
     38  CA         5.2130   50.7950   19.7550 C.3   179  ASP179      0.1805
     39  C          6.3170   51.7280   19.2260 C.2   179  ASP179      0.2597
     40  O          5.9800   52.4540   18.2950 O.2   179  ASP179     -0.2718
     41  CB         5.0260   49.5640   18.8300 C.3   179  ASP179      0.1424
     42  CG         6.1790   48.5370   19.0360 C.2   179  ASP179      0.3668
     43  OD1        7.1360   48.8120   19.7820 O.co2 179  ASP179     -0.2456
     44  OD2        6.0870   47.4480   18.4900 O.co2 179  ASP179     -0.2456
     45  N          7.5560   51.7630   19.7620 N.am  180  PHE180     -0.1976
     46  CA         8.5580   52.7720   19.3420 C.3   180  PHE180      0.1639
     47  C          8.1510   54.2220   19.5370 C.2   180  PHE180      0.2290
     48  O          8.7430   55.1390   18.9460 O.2   180  PHE180     -0.2864
     49  CB         8.9940   52.5790   17.8890 C.3   180  PHE180      0.0560
     50  CG         9.6410   51.2290   17.8720 C.ar  180  PHE180     -0.0200
     51  CD1       10.9430   51.0930   18.3580 C.ar  180  PHE180     -0.0042
     52  CD2        8.9550   50.1240   17.3690 C.ar  180  PHE180     -0.0042
     53  CE1       11.5880   49.8720   18.2960 C.ar  180  PHE180     -0.0003
     54  CE2        9.6240   48.9150   17.3290 C.ar  180  PHE180     -0.0003
     55  CZ        10.9310   48.8030   17.7710 C.ar  180  PHE180     -0.0000
     56  N          6.0700   44.6940   27.0890 N.3   213  CYS213     -0.1221
     57  CA         5.4470   45.3080   25.9520 C.3   213  CYS213      0.1808
     58  C          5.4310   44.2200   24.9430 C.2   213  CYS213      0.2602
     59  O          5.1600   43.0790   25.2600 O.2   213  CYS213     -0.2717
     60  CB         6.1630   46.5630   25.4480 C.3   213  CYS213      0.0970
     61  SG         7.9960   46.3860   25.6610 S.3   213  CYS213     -0.0800
     62  N          5.7680   44.5550   23.7170 N.am  214  SER214     -0.1938
     63  CA         5.8270   43.4250   22.7880 C.3   214  SER214      0.2055
     64  C          7.1970   42.6470   22.8720 C.2   214  SER214      0.2642
     65  O          7.2290   41.4380   22.9320 O.2   214  SER214     -0.2714
     66  CB         5.5980   44.0350   21.3200 C.3   214  SER214      0.2130
     67  OG         5.6890   42.9930   20.3190 O.3   214  SER214     -0.2179
     68  N          8.3660   43.4050   23.0050 N.am  215  ALA215     -0.1977
     69  CA         9.7270   42.7950   23.0660 C.3   215  ALA215      0.1597
     70  C         10.2420   42.7160   24.5090 C.2   215  ALA215      0.2287
     71  O         11.1930   42.0150   24.8400 O.2   215  ALA215     -0.2864
     72  CB        10.6480   43.7500   22.3480 C.3   215  ALA215      0.0319
     73  N         11.4070   45.5530   26.0050 N.3   217  ILE217     -0.1231
     74  CA        12.5810   46.4260   26.0430 C.3   217  ILE217      0.1692
     75  C         12.2930   47.9070   25.9100 C.2   217  ILE217      0.2593
     76  O         12.7680   48.6800   26.7200 O.2   217  ILE217     -0.2718
     77  CB        13.7370   45.8900   25.0910 C.3   217  ILE217      0.0266
     78  CG1       13.2400   45.6790   23.6980 C.3   217  ILE217      0.0019
     79  CG2       14.3990   44.5590   25.5660 C.3   217  ILE217      0.0020
     80  CD1       14.4840   45.3860   22.8400 C.3   217  ILE217      0.0001
     81  N         11.5390   48.3310   24.9220 N.am  218  GLY218     -0.1942
     82  CA        11.4260   49.7720   24.7190 C.3   218  GLY218      0.2014
     83  C         10.4620   50.5460   25.6070 C.2   218  GLY218      0.2638
     84  O         10.8660   51.3100   26.4900 O.2   218  GLY218     -0.2714
     85  N          9.1460   50.3100   25.4060 N.am  219  ARG219     -0.1977
     86  CA         8.1340   50.7430   26.3940 C.3   219  ARG219      0.1597
     87  C          8.3890   50.1870   27.8570 C.2   219  ARG219      0.2287
     88  O          8.4010   50.9610   28.8090 O.2   219  ARG219     -0.2864
     89  CB         6.7250   50.3980   25.8550 C.3   219  ARG219      0.0334
     90  CG         6.4120   51.1140   24.5550 C.3   219  ARG219      0.0492
     91  CD         5.0400   50.7300   24.0770 C.3   219  ARG219      0.2205
     92  NE         5.2210   49.4540   23.4150 N.pl3 219  ARG219     -0.0865
     93  CZ         4.2430   48.9800   22.5990 C.cat 219  ARG219      0.5346
     94  NH1        3.0900   49.5960   22.5070 N.pl3 219  ARG219      0.1354
     95  NH2        4.4680   47.9160   21.8600 N.pl3 219  ARG219      0.1354
     96  N         14.0760   51.9720   23.5260 N.3   260  GLN260     -0.1245
     97  CA        14.3320   51.7050   22.1220 C.3   260  GLN260      0.1566
     98  C         14.6600   52.9200   21.2620 C.2   260  GLN260      0.2260
     99  O         15.3510   52.7430   20.3130 O.2   260  GLN260     -0.2867
    100  CB        13.2640   50.8100   21.5540 C.3   260  GLN260      0.0367
    101  CG        13.5680   49.3980   22.0060 C.3   260  GLN260      0.0905
    102  CD        14.7200   48.8730   21.1320 C.2   260  GLN260      0.2608
    103  OE1       14.5640   48.7620   19.9300 O.2   260  GLN260     -0.2717
    104  NE2       15.8880   48.5940   21.6950 N.am  260  GLN260     -0.0878
    105  N         12.0550   58.1550   23.4980 N.3   264  GLN264     -0.1245
    106  CA        11.7510   57.4910   24.7760 C.3   264  GLN264      0.1566
    107  C         12.6840   57.8860   25.9340 C.2   264  GLN264      0.2260
    108  O         12.2780   58.0440   27.0700 O.2   264  GLN264     -0.2867
    109  CB        11.7800   55.9680   24.5700 C.3   264  GLN264      0.0367
    110  CG        10.4870   55.4060   23.8620 C.3   264  GLN264      0.0905
    111  CD        10.6640   53.9190   23.4990 C.2   264  GLN264      0.2608
    112  OE1       11.7610   53.4100   23.6770 O.2   264  GLN264     -0.2717
    113  NE2        9.6190   53.2790   22.9940 N.am  264  GLN264     -0.0878
@<TRIPOS>BOND
     1    36    35    1
     2    35    34    1
     3     9     7   ar
     4     9    11   ar
     5    19    18    2
     6    18    17    1
     7    18    20   am
     8     7     6   ar
     9    17    14    1
    10    34    33    1
    11    54    52   ar
    12    54    55   ar
    13    52    50   ar
    14    13    14    1
    15    33    32    1
    16    55    53   ar
    17    50    49    1
    18    50    51   ar
    19    49    46    1
    20    28    29    1
    21    12    11    1
    22     2     3    1
    23     2     5    1
    24     2     1    1
    25    14    15    1
    26    11    10   ar
    27     3     4    2
    28    40    39    2
    29    53    51   ar
    30     6     5    1
    31     6     8   ar
    32    44    42   ar
    33    29    32    1
    34    29    30    1
    35    41    42    1
    36    41    38    1
    37    48    47    2
    38    42    43   ar
    39    39    38    1
    40    39    45   am
    41    46    47    1
    42    46    45    1
    43    10     8   ar
    44    15    16    2
    45    15    21   am
    46    38    37    1
    47   103   102    2
    48    30    31    2
    49    21    22    1
    50    99    98    2
    51    67    66    1
    52    26    25    1
    53   102   104   am
    54   102   101    1
    55    98    97    1
    56    66    63    1
    57   100   101    1
    58   100    97    1
    59    22    25    1
    60    22    23    1
    61    95    93    1
    62    25    27    1
    63    97    96    1
    64    72    69    1
    65    24    23    2
    66    94    93    1
    67    93    92    2
    68    63    64    1
    69    63    62    1
    70    80    78    1
    71    64    65    2
    72    64    68   am
    73   113   111   am
    74    68    69    1
    75    69    70    1
    76    92    91    1
    77   105   106    1
    78   111   112    2
    79   111   110    1
    80    78    77    1
    81    62    58   am
    82   110   109    1
    83    91    90    1
    84    70    71    2
    85    90    89    1
    86   109   106    1
    87    82    81    1
    88    82    83    1
    89   106   107    1
    90    81    75   am
    91    58    59    2
    92    58    57    1
    93    77    79    1
    94    77    74    1
    95    85    83   am
    96    85    86    1
    97    60    61    1
    98    60    57    1
    99    83    84    2
   100    89    86    1
   101    75    74    1
   102    75    76    2
   103   107   108    2
   104    57    56    1
   105    73    74    1
   106    86    87    1
   107    87    88    2
