@<TRIPOS>MOLECULE
tmp/1gg1B00.pdb
 129 120 0 0 0
SMALL
GASTEIGER

@<TRIPOS>ATOM
      1  N         32.5120   19.6860   59.1970 N.3    54  CYS54      -0.1235
      2  CA        32.1590   19.3960   57.8260 C.3    54  CYS54       0.1677
      3  C         33.3740   19.7870   57.0000 C.2    54  CYS54       0.2270
      4  O         33.7990   19.0380   56.1030 O.2    54  CYS54      -0.2867
      5  CB        30.9360   20.2240   57.4060 C.3    54  CYS54       0.0956
      6  SG        30.5450   20.1460   55.6260 S.3    54  CYS54      -0.0801
      7  N         37.7050   14.3120   61.5420 N.3    85  ARG85      -0.1245
      8  CA        37.4300   14.7610   60.1930 C.3    85  ARG85       0.1563
      9  C         38.2880   16.0550   60.0260 C.2    85  ARG85       0.2260
     10  O         38.0680   17.0180   60.7810 O.2    85  ARG85      -0.2867
     11  CB        35.9460   15.1680   60.0270 C.3    85  ARG85       0.0307
     12  CG        34.9280   13.9920   59.9450 C.3    85  ARG85       0.0489
     13  CD        33.5050   14.5100   59.7430 C.3    85  ARG85       0.2205
     14  NE        33.4410   15.4830   58.6440 N.pl3  85  ARG85      -0.0865
     15  CZ        32.7460   15.3530   57.5080 C.cat  85  ARG85       0.5346
     16  NH1       32.0130   14.2640   57.2810 N.pl3  85  ARG85       0.1354
     17  NH2       32.7970   16.3290   56.5790 N.pl3  85  ARG85       0.1354
     18  N         38.7500   17.7490   56.7930 N.3    87  TYR87      -0.1241
     19  CA        38.4100   17.8370   55.3670 C.3    87  TYR87       0.1605
     20  C         38.8530   19.1360   54.7230 C.2    87  TYR87       0.2264
     21  O         38.3390   20.1890   55.0680 O.2    87  TYR87      -0.2867
     22  CB        36.8880   17.6920   55.1980 C.3    87  TYR87       0.0534
     23  CG        36.3640   16.2390   55.3180 C.ar   87  TYR87      -0.0201
     24  CD1       36.8210   15.3780   56.3240 C.ar   87  TYR87      -0.0009
     25  CD2       35.4290   15.7490   54.4150 C.ar   87  TYR87      -0.0009
     26  CE1       36.3420   14.0450   56.4060 C.ar   87  TYR87       0.0417
     27  CE2       34.9490   14.4190   54.4910 C.ar   87  TYR87       0.0417
     28  CZ        35.4140   13.5840   55.4790 C.ar   87  TYR87       0.1957
     29  OH        34.9320   12.2870   55.5390 O.3    87  TYR87      -0.2866
     30  N         35.8880   20.2580   49.4840 N.3    90  LYS90      -0.1231
     31  CA        34.4350   20.1890   49.4810 C.3    90  LYS90       0.1678
     32  C         33.7590   20.2390   48.1130 C.2    90  LYS90       0.2434
     33  O         33.9110   21.1920   47.3360 O.2    90  LYS90      -0.2733
     34  CB        33.8450   21.3070   50.3640 C.3    90  LYS90       0.0284
     35  CG        34.5150   21.4560   51.7250 C.3    90  LYS90       0.0035
     36  CD        34.3840   20.1660   52.6180 C.3    90  LYS90       0.0206
     37  CE        32.9320   19.7800   52.8180 C.3    90  LYS90       0.1093
     38  NZ        32.8130   18.5100   53.6280 N.3    90  LYS90      -0.1314
     39  N         32.9930   19.1940   47.8010 N.am   91  PRO91      -0.2729
     40  CA        32.2820   19.1260   46.5230 C.3    91  PRO91       0.1401
     41  C         30.9880   19.9010   46.7060 C.2    91  PRO91       0.2269
     42  O         30.2190   19.6320   47.6400 O.2    91  PRO91      -0.2865
     43  CB        32.0240   17.6260   46.3400 C.3    91  PRO91       0.0296
     44  CG        31.7830   17.1800   47.8100 C.3    91  PRO91       0.0237
     45  CD        32.9300   17.9110   48.5270 C.3    91  PRO91       0.0939
     46  N         38.1370   13.7960   52.6910 N.3   136  GLU136     -0.1245
     47  CA        37.5240   13.3110   51.4680 C.3   136  GLU136      0.1567
     48  C         38.5470   13.4640   50.3630 C.2   136  GLU136      0.2260
     49  O         39.1490   14.5230   50.1940 O.2   136  GLU136     -0.2867
     50  CB        36.2340   14.0510   51.0870 C.3   136  GLU136      0.0388
     51  CG        35.7970   13.6670   49.6580 C.3   136  GLU136      0.1160
     52  CD        34.4560   14.2290   49.1860 C.2   136  GLU136      0.3649
     53  OE1       33.6140   14.6190   50.0160 O.co2 136  GLU136     -0.2457
     54  OE2       34.2270   14.2340   47.9480 O.co2 136  GLU136     -0.2457
     55  N         33.1840   10.8230   48.2050 N.3   156  GLY156     -0.1210
     56  CA        31.8570   11.3880   48.4500 C.3   156  GLY156      0.1956
     57  C         30.7510   10.8350   47.5690 C.2   156  GLY156      0.2612
     58  O         31.0100   10.1880   46.5440 O.2   156  GLY156     -0.2717
     59  N         29.5180   11.0890   47.9730 N.am  157  ALA157     -0.1965
     60  CA        28.3550   10.5810   47.2520 C.3   157  ALA157      0.1728
     61  C         28.2900   10.9880   45.7880 C.2   157  ALA157      0.2616
     62  O         27.7340   10.2560   44.9500 O.2   157  ALA157     -0.2715
     63  CB        27.0810   11.0140   47.9730 C.3   157  ALA157      0.0334
     64  N         28.8540   12.1530   45.4610 N.am  158  ARG158     -0.1977
     65  CA        28.8010   12.6420   44.0770 C.3   158  ARG158      0.1597
     66  C         29.9130   12.0550   43.2080 C.2   158  ARG158      0.2287
     67  O         29.9290   12.2500   41.9990 O.2   158  ARG158     -0.2864
     68  CB        28.8910   14.1980   44.0470 C.3   158  ARG158      0.0334
     69  CG        27.7380   14.8590   44.8060 C.3   158  ARG158      0.0492
     70  CD        27.9420   16.3810   45.0950 C.3   158  ARG158      0.2205
     71  NE        26.8630   16.7850   45.9930 N.pl3 158  ARG158     -0.0865
     72  CZ        26.8060   16.4740   47.2960 C.cat 158  ARG158      0.5346
     73  NH1       27.7790   15.7800   47.8680 N.pl3 158  ARG158      0.1354
     74  NH2       25.7240   16.7730   48.0130 N.pl3 158  ARG158      0.1354
     75  N         30.6420    6.5220   49.9950 N.3   179  LYS179     -0.1245
     76  CA        29.2910    6.9360   50.3000 C.3   179  LYS179      0.1561
     77  C         28.3150    6.4800   49.2730 C.2   179  LYS179      0.2260
     78  O         28.6700    6.4040   48.1060 O.2   179  LYS179     -0.2867
     79  CB        29.2170    8.4770   50.3660 C.3   179  LYS179      0.0271
     80  CG        29.8860    8.9380   51.6690 C.3   179  LYS179      0.0035
     81  CD        29.4960   10.3510   52.0440 C.3   179  LYS179      0.0206
     82  CE        29.8320   10.5930   53.5030 C.3   179  LYS179      0.1093
     83  NZ        28.9850   11.7270   53.9540 N.3   179  LYS179     -0.1314
     84  N         24.6770    7.2690   53.9550 N.3   227  ARG227     -0.1245
     85  CA        24.5070    8.7120   54.2810 C.3   227  ARG227      0.1563
     86  C         23.1460    9.2860   53.8790 C.2   227  ARG227      0.2260
     87  O         22.9040   10.5340   53.8430 O.2   227  ARG227     -0.2867
     88  CB        25.6960    9.4890   53.6640 C.3   227  ARG227      0.0307
     89  CG        26.0140    9.1840   52.1980 C.3   227  ARG227      0.0489
     90  CD        25.0260    9.8260   51.2390 C.3   227  ARG227      0.2205
     91  NE        25.2690   11.2740   51.1710 N.pl3 227  ARG227     -0.0865
     92  CZ        24.3850   12.1700   50.7480 C.cat 227  ARG227      0.5346
     93  NH1       23.1690   11.7890   50.3620 N.pl3 227  ARG227      0.1354
     94  NH2       24.7460   13.4540   50.6660 N.pl3 227  ARG227      0.1354
     95  N         24.1950   14.6610   56.9860 N.3   261  HIS261     -0.1241
     96  CA        23.7400   14.7960   55.6110 C.3   261  HIS261      0.1621
     97  C         22.3180   14.3190   55.4050 C.2   261  HIS261      0.2264
     98  O         21.4390   14.7410   56.1270 O.2   261  HIS261     -0.2867
     99  CB        24.7340   14.0890   54.6930 C.3   261  HIS261      0.0745
    100  CG        26.1060   14.6520   54.8050 C.ar  261  HIS261      0.0817
    101  ND1       27.1160   14.0310   55.5110 N.ar  261  HIS261     -0.2268
    102  CD2       26.5740   15.8850   54.4730 C.ar  261  HIS261      0.1154
    103  CE1       28.1330   14.8660   55.6310 C.ar  261  HIS261      0.1986
    104  NE2       27.8270   15.9960   55.0090 N.ar  261  HIS261     -0.2212
    105  N         29.8890    8.1910   61.2660 N.3   293  MET293     -0.1245
    106  CA        30.4970    9.4600   60.8530 C.3   293  MET293      0.1570
    107  C         29.5980   10.5560   61.4110 C.2   293  MET293      0.2261
    108  O         28.3910   10.4280   61.3820 O.2   293  MET293     -0.2867
    109  CB        30.5610    9.5310   59.3270 C.3   293  MET293      0.0387
    110  CG        31.1360   10.8300   58.8250 C.3   293  MET293      0.0595
    111  SD        31.0890   10.9350   57.0360 S.3   293  MET293     -0.1393
    112  CE        32.6370   10.1380   56.6570 C.3   293  MET293      0.0692
    113  N         29.1320   15.0490   62.0080 N.3   295  GLU295     -0.1245
    114  CA        29.5920   16.4140   61.6750 C.3   295  GLU295      0.1567
    115  C         29.4940   17.1910   62.9560 C.2   295  GLU295      0.2260
    116  O         28.4200   17.4770   63.4780 O.2   295  GLU295     -0.2867
    117  CB        28.7610   17.0290   60.5560 C.3   295  GLU295      0.0388
    118  CG        29.2760   16.5730   59.1550 C.3   295  GLU295      0.1160
    119  CD        28.5830   17.2480   57.9590 C.2   295  GLU295      0.3649
    120  OE1       27.3230   17.3660   57.9380 O.co2 295  GLU295     -0.2457
    121  OE2       29.3170   17.6170   57.0170 O.co2 295  GLU295     -0.2457
    122  N         28.3140   22.6310   56.0080 N.3   319  ASP319     -0.1239
    123  CA        27.1590   21.9900   56.7090 C.3   319  ASP319      0.1674
    124  C         27.1140   22.2700   58.2160 C.2   319  ASP319      0.2266
    125  O         28.1470   22.3610   58.8780 O.2   319  ASP319     -0.2867
    126  CB        27.1250   20.4340   56.5210 C.3   319  ASP319      0.1410
    127  CG        26.9980   20.0150   55.0570 C.2   319  ASP319      0.3668
    128  OD1       26.3580   20.7910   54.3110 O.co2 319  ASP319     -0.2456
    129  OD2       27.4860   18.8970   54.6540 O.co2 319  ASP319     -0.2456
@<TRIPOS>BOND
     1    67    66    2
     2    66    65    1
     3    68    65    1
     4    68    69    1
     5    65    64    1
     6    69    70    1
     7    62    61    2
     8    70    71    1
     9    64    61   am
    10    61    60    1
    11    71    72    2
    12    43    40    1
    13    43    44    1
    14    40    41    1
    15    40    39    1
    16    58    57    2
    17    41    42    2
    18    60    63    1
    19    60    59    1
    20    72    73    1
    21    72    74    1
    22    33    32    2
    23    57    59   am
    24    57    56    1
    25    39    32   am
    26    39    45    1
    27    44    45    1
    28    54    52   ar
    29    78    77    2
    30    32    31    1
    31    55    56    1
    32    52    51    1
    33    52    53   ar
    34    77    76    1
    35    31    30    1
    36    31    34    1
    37    51    50    1
    38    75    76    1
    39    49    48    2
    40    76    79    1
    41    93    92    1
    42    48    47    1
    43    34    35    1
    44    79    80    1
    45    94    92    1
    46    92    91    2
    47    50    47    1
    48    91    90    1
    49    90    89    1
    50    47    46    1
    51    80    81    1
    52    35    36    1
    53    81    82    1
    54    89    88    1
    55    36    37    1
    56    37    38    1
    57    82    83    1
    58    88    85    1
    59    87    86    2
    60    86    85    1
    61    84    85    1
    62   128   127   ar
    63    25    27   ar
    64    25    23   ar
    65   102   100   ar
    66   102   104   ar
    67    27    28   ar
    68   129   127   ar
    69    99   100    1
    70    99    96    1
    71    20    21    2
    72    20    19    1
    73   100   101   ar
    74   104   103   ar
    75   127   126    1
    76    22    23    1
    77    22    19    1
    78    23    24   ar
    79    19    18    1
    80    97    96    1
    81    97    98    2
    82    28    29    1
    83    28    26   ar
    84   101   103   ar
    85    96    95    1
    86     6     5    1
    87   122   123    1
    88     4     3    2
    89    24    26   ar
    90   126   123    1
    91    17    15    1
    92   112   111    1
    93   123   124    1
    94     3     2    1
    95   121   119   ar
    96   111   110    1
    97    16    15    1
    98     5     2    1
    99    15    14    2
   100     2     1    1
   101   120   119   ar
   102   119   118    1
   103   124   125    2
   104    14    13    1
   105   110   109    1
   106   118   117    1
   107   109   106    1
   108    13    12    1
   109    12    11    1
   110     9     8    1
   111     9    10    2
   112    11     8    1
   113     8     7    1
   114   117   114    1
   115   106   105    1
   116   106   107    1
   117   108   107    2
   118   114   113    1
   119   114   115    1
   120   115   116    2
