@<TRIPOS>MOLECULE
tmp/1gg6B01.pdb
 78 71 0 0 0
SMALL
GASTEIGER

@<TRIPOS>ATOM
      1  N         22.4620   -2.6200   25.0410 N.3    19  GLN19      -0.1245
      2  CA        22.5060   -4.0680   25.2140 C.3    19  GLN19       0.1566
      3  C         23.5970   -4.6860   24.3470 C.2    19  GLN19       0.2260
      4  O         23.8730   -4.1890   23.2610 O.2    19  GLN19      -0.2867
      5  CB        21.1390   -4.6650   24.8510 C.3    19  GLN19       0.0367
      6  CG        20.0170   -4.1680   25.7540 C.3    19  GLN19       0.0905
      7  CD        18.6220   -4.5390   25.2680 C.2    19  GLN19       0.2608
      8  OE1       18.4540   -5.3590   24.3640 O.2    19  GLN19      -0.2717
      9  NE2       17.6100   -3.9280   25.8790 N.am   19  GLN19      -0.0878
     10  N         24.0110  -10.3050   23.0290 N.3    22  THR22      -0.1203
     11  CA        23.1790  -11.3540   23.6230 C.3    22  THR22       0.1994
     12  C         21.8590  -10.8020   24.1710 C.2    22  THR22       0.2618
     13  O         21.0200  -11.5550   24.6750 O.2    22  THR22      -0.2717
     14  CB        23.9090  -12.0940   24.7630 C.3    22  THR22       0.1784
     15  OG1       23.9030  -11.2860   25.9470 O.3    22  THR22      -0.2211
     16  CG2       25.3440  -12.4090   24.3640 C.3    22  THR22       0.0376
     17  N         21.6840   -9.4850   24.0730 N.am   23  GLY23      -0.1956
     18  CA        20.4660   -8.8520   24.5590 C.3    23  GLY23       0.1869
     19  C         20.5230   -8.4440   26.0210 C.2    23  GLY23       0.2309
     20  O         19.5140   -8.0470   26.6070 O.2    23  GLY23      -0.2863
     21  N         18.7610    0.4770   22.2750 N.3    52  VAL52      -0.1245
     22  CA        17.3440    0.1470   22.2240 C.3    52  VAL52       0.1561
     23  C         16.5270    1.3240   22.7380 C.2    52  VAL52       0.2260
     24  O         16.6480    1.7250   23.9000 O.2    52  VAL52      -0.2867
     25  CB        17.0160   -1.1120   23.0600 C.3    52  VAL52       0.0252
     26  CG1       15.5410   -1.4660   22.9050 C.3    52  VAL52       0.0019
     27  CG2       17.8830   -2.2780   22.6110 C.3    52  VAL52       0.0019
     28  N         11.8260    1.4570   24.9850 N.3    55  GLU55      -0.1245
     29  CA        11.5890    0.3350   25.8880 C.3    55  GLU55       0.1567
     30  C         11.1870    0.7740   27.2880 C.2    55  GLU55       0.2260
     31  O         11.5980    1.8370   27.7620 O.2    55  GLU55      -0.2867
     32  CB        12.8410   -0.5460   25.9800 C.3    55  GLU55       0.0388
     33  CG        12.6240   -1.8560   26.7210 C.3    55  GLU55       0.1160
     34  CD        13.6310   -2.9270   26.3380 C.2    55  GLU55       0.3649
     35  OE1       14.8410   -2.6220   26.2910 O.co2  55  GLU55      -0.2457
     36  OE2       13.2120   -4.0760   26.0870 O.co2  55  GLU55      -0.2457
     37  N         11.6840   -4.5510   30.0060 N.3    58  GLN58      -0.1231
     38  CA        12.6250   -5.3880   29.2720 C.3    58  GLN58       0.1698
     39  C         12.2500   -6.8610   29.2880 C.2    58  GLN58       0.2593
     40  O         12.8600   -7.6690   28.5940 O.2    58  GLN58      -0.2718
     41  CB        14.0450   -5.1760   29.8120 C.3    58  GLN58       0.0381
     42  CG        14.4540   -3.7140   29.8520 C.3    58  GLN58       0.0905
     43  CD        15.9320   -3.4960   29.5910 C.2    58  GLN58       0.2608
     44  OE1       16.4430   -2.3910   29.7710 O.2    58  GLN58      -0.2717
     45  NE2       16.6260   -4.5460   29.1630 N.am   58  GLN58      -0.0878
     46  N         11.2360   -7.2040   30.0760 N.am   59  GLY59      -0.1942
     47  CA        10.7860   -8.5820   30.1400 C.3    59  GLY59       0.2014
     48  C          9.5800   -8.7740   29.2400 C.2    59  GLY59       0.2640
     49  O          9.0460   -9.8730   29.1260 O.2    59  GLY59      -0.2714
     50  N          9.1590   -7.6940   28.5920 N.am   60  SER60      -0.1935
     51  CA         8.0050   -7.7320   27.7020 C.3    60  SER60       0.2055
     52  C          8.3970   -7.8460   26.2320 C.2    60  SER60       0.2643
     53  O          9.3900   -7.2660   25.7860 O.2    60  SER60      -0.2714
     54  CB         7.1490   -6.4760   27.9020 C.3    60  SER60       0.2130
     55  OG         6.1650   -6.3580   26.8880 O.3    60  SER60      -0.2179
     56  N          7.6010   -8.5990   25.4820 N.am   61  SER61      -0.1949
     57  CA         7.8360   -8.7950   24.0560 C.3    61  SER61       0.1924
     58  C          6.8340   -7.9840   23.2310 C.2    61  SER61       0.2314
     59  O          6.9160   -7.9500   22.0070 O.2    61  SER61      -0.2863
     60  CB         7.6740  -10.2760   23.7050 C.3    61  SER61       0.2116
     61  OG         6.4050  -10.7510   24.1320 O.3    61  SER61      -0.2180
     62  N          9.6940   -1.4490   20.3000 N.3    65  ILE65      -0.1245
     63  CA        10.9870   -0.8130   20.4710 C.3    65  ILE65       0.1561
     64  C         11.7450   -0.6890   19.1560 C.2    65  ILE65       0.2260
     65  O         11.3580   -1.2670   18.1340 O.2    65  ILE65      -0.2867
     66  CB        11.8580   -1.5980   21.4840 C.3    65  ILE65       0.0252
     67  CG1       12.3950   -2.8800   20.8390 C.3    65  ILE65       0.0019
     68  CG2       11.0360   -1.9340   22.7310 C.3    65  ILE65       0.0019
     69  CD1       11.3260   -3.8940   20.4890 C.3    65  ILE65       0.0001
     70  N         15.5510   -1.2470   17.8300 N.3    67  LYS67      -0.1245
     71  CA        16.8890   -1.7710   18.0840 C.3    67  LYS67       0.1561
     72  C         17.7840   -1.1360   17.0260 C.2    67  LYS67       0.2260
     73  O         17.7700   -1.5420   15.8620 O.2    67  LYS67      -0.2867
     74  CB        16.8930   -3.2930   17.9440 C.3    67  LYS67       0.0271
     75  CG        17.7920   -4.0010   18.9450 C.3    67  LYS67       0.0035
     76  CD        17.8260   -5.5010   18.7020 C.3    67  LYS67       0.0206
     77  CE        16.8430   -6.2300   19.6060 C.3    67  LYS67       0.1093
     78  NZ        16.7180   -7.6690   19.2300 N.3    67  LYS67      -0.1314
@<TRIPOS>BOND
     1    73    72    2
     2    72    71    1
     3    70    71    1
     4    74    71    1
     5    74    75    1
     6    65    64    2
     7    76    75    1
     8    76    77    1
     9    64    63    1
    10    78    77    1
    11    62    63    1
    12    63    66    1
    13    69    67    1
    14    67    66    1
    15    66    68    1
    16    59    58    2
    17    22    21    1
    18    22    23    1
    19    22    25    1
    20    27    25    1
    21    23    24    2
    22    26    25    1
    23    10    11    1
    24    58    57    1
    25     4     3    2
    26    11    12    1
    27    11    14    1
    28    60    57    1
    29    60    61    1
    30    57    56    1
    31    17    12   am
    32    17    18    1
    33    12    13    2
    34     3     2    1
    35     8     7    2
    36    16    14    1
    37    18    19    1
    38    14    15    1
    39     5     2    1
    40     5     6    1
    41    28    29    1
    42     1     2    1
    43     7     6    1
    44     7     9   am
    45    56    52   am
    46    53    52    2
    47    29    32    1
    48    29    30    1
    49    32    33    1
    50    19    20    2
    51    36    34   ar
    52    52    51    1
    53    35    34   ar
    54    34    33    1
    55    55    54    1
    56    30    31    2
    57    51    54    1
    58    51    50    1
    59    50    48   am
    60    40    39    2
    61    49    48    2
    62    45    43   am
    63    48    47    1
    64    38    39    1
    65    38    41    1
    66    38    37    1
    67    39    46   am
    68    43    44    2
    69    43    42    1
    70    41    42    1
    71    46    47    1
