@<TRIPOS>MOLECULE
tmp/1gg8A00.pdb
 127 121 0 0 0
SMALL
GASTEIGER

@<TRIPOS>ATOM
      1  N         29.0900   23.6870   30.2490 N.3   123  GLY123     -0.1210
      2  CA        29.2930   22.3920   29.6210 C.3   123  GLY123      0.1956
      3  C         29.9870   21.3080   30.4090 C.2   123  GLY123      0.2611
      4  O         29.4870   20.1830   30.5060 O.2   123  GLY123     -0.2717
      5  N         31.1450   21.6470   30.9610 N.am  124  LEU124     -0.1979
      6  CA        31.9590   20.7120   31.7320 C.3   124  LEU124      0.1596
      7  C         31.1930   20.1230   32.9340 C.2   124  LEU124      0.2287
      8  O         31.2420   18.9170   33.1890 O.2   124  LEU124     -0.2864
      9  CB        33.2430   21.4370   32.1730 C.3   124  LEU124      0.0297
     10  CG        34.2630   20.8260   33.1330 C.3   124  LEU124      0.0022
     11  CD1       35.6470   21.4320   32.9150 C.3   124  LEU124      0.0001
     12  CD2       33.8000   21.0980   34.5450 C.3   124  LEU124      0.0001
     13  N         28.1910   18.0020   31.6690 N.3   127  LEU127     -0.1245
     14  CA        28.6330   16.7350   31.0830 C.3   127  LEU127      0.1561
     15  C         28.7170   15.6950   32.1980 C.2   127  LEU127      0.2260
     16  O         28.2530   14.5560   32.0670 O.2   127  LEU127     -0.2867
     17  CB        30.0020   16.8930   30.4150 C.3   127  LEU127      0.0270
     18  CG        30.4410   15.6730   29.5980 C.3   127  LEU127      0.0019
     19  CD1       29.7370   15.6860   28.2460 C.3   127  LEU127      0.0001
     20  CD2       31.9650   15.6660   29.4510 C.3   127  LEU127      0.0001
     21  N         34.3030   30.1160   33.1990 N.3   271  ASP271     -0.1225
     22  CA        34.0690   29.0770   32.2190 C.3   271  ASP271      0.1805
     23  C         35.2220   29.2180   31.2300 C.2   271  ASP271      0.2597
     24  O         35.4470   30.2940   30.6970 O.2   271  ASP271     -0.2718
     25  CB        32.7210   29.3070   31.5220 C.3   271  ASP271      0.1424
     26  CG        32.3820   28.2100   30.5250 C.2   271  ASP271      0.3668
     27  OD1       32.8790   28.2870   29.3800 O.co2 271  ASP271     -0.2456
     28  OD2       31.6310   27.2730   30.8830 O.co2 271  ASP271     -0.2456
     29  N         35.9850   28.1570   31.0120 N.am  272  ASN272     -0.1974
     30  CA        37.0800   28.2440   30.0570 C.3   272  ASN272      0.1688
     31  C         37.9930   29.4280   30.3020 C.2   272  ASN272      0.2292
     32  O         38.3140   30.1750   29.3770 O.2   272  ASN272     -0.2864
     33  CB        36.5330   28.3470   28.6360 C.3   272  ASN272      0.1181
     34  CG        36.2550   26.9980   28.0310 C.2   272  ASN272      0.2629
     35  OD1       37.1740   26.2290   27.7590 O.2   272  ASN272     -0.2716
     36  ND2       34.9800   26.6910   27.8300 N.am  272  ASN272     -0.0877
     37  N         39.2940   19.3910   27.7540 N.3   365  HIS365     -0.1226
     38  CA        38.0700   20.0460   27.2980 C.3   365  HIS365      0.1752
     39  C         38.2280   21.3420   26.5120 C.2   365  HIS365      0.2596
     40  O         37.2350   21.8990   26.0600 O.2   365  HIS365     -0.2718
     41  CB        37.1430   20.3220   28.4880 C.3   365  HIS365      0.0759
     42  CG        36.7420   19.1040   29.2620 C.ar  365  HIS365      0.0818
     43  ND1       35.6090   18.3780   28.9720 N.ar  365  HIS365     -0.2268
     44  CD2       37.3100   18.5040   30.3350 C.ar  365  HIS365      0.1154
     45  CE1       35.4850   17.3890   29.8410 C.ar  365  HIS365      0.1986
     46  NE2       36.5050   17.4420   30.6780 N.ar  365  HIS365     -0.2212
     47  N         39.4410   21.8520   26.3570 N.am  366  THR366     -0.1953
     48  CA        39.6010   23.0910   25.5980 C.3   366  THR366      0.1897
     49  C         41.0300   23.2930   25.1450 C.2   366  THR366      0.2313
     50  O         41.9490   22.7710   25.7590 O.2   366  THR366     -0.2863
     51  CB        39.1530   24.3230   26.4170 C.3   366  THR366      0.1794
     52  OG1       39.3240   25.5120   25.6330 O.3   366  THR366     -0.2208
     53  CG2       39.9640   24.4280   27.7100 C.3   366  THR366      0.0378
     54  N         36.9710   15.5610   23.3640 N.3   443  VAL443     -0.1245
     55  CA        35.5350   15.4050   23.5290 C.3   443  VAL443      0.1561
     56  C         34.7140   15.4360   22.2380 C.2   443  VAL443      0.2260
     57  O         33.4850   15.4070   22.2560 O.2   443  VAL443     -0.2867
     58  CB        35.0350   16.4550   24.5630 C.3   443  VAL443      0.0252
     59  CG1       35.4850   16.0380   25.9880 C.3   443  VAL443      0.0019
     60  CG2       35.6050   17.8310   24.2330 C.3   443  VAL443      0.0019
     61  N         31.3600   13.6620   23.1130 N.3   472  ASN472     -0.1240
     62  CA        30.3910   13.9210   24.1600 C.3   472  ASN472      0.1653
     63  C         29.0040   13.4620   23.7440 C.2   472  ASN472      0.2266
     64  O         28.7730   13.0950   22.5920 O.2   472  ASN472     -0.2867
     65  CB        30.3730   15.4200   24.4920 C.3   472  ASN472      0.1155
     66  CG        31.5720   15.8590   25.3460 C.2   472  ASN472      0.2627
     67  OD1       31.7800   17.0520   25.5650 O.2   472  ASN472     -0.2716
     68  ND2       32.3570   14.8980   25.8290 N.am  472  ASN472     -0.0877
     69  N         34.7140   33.7530   21.9690 N.3   561  TYR561     -0.1227
     70  CA        34.8210   32.6440   21.0260 C.3   561  TYR561      0.1736
     71  C         33.4680   32.0350   20.6150 C.2   561  TYR561      0.2595
     72  O         33.3620   31.4400   19.5440 O.2   561  TYR561     -0.2718
     73  CB        35.7890   31.5650   21.5760 C.3   561  TYR561      0.0548
     74  CG        35.2130   30.4220   22.4140 C.ar  561  TYR561     -0.0200
     75  CD1       34.6760   29.2810   21.8050 C.ar  561  TYR561     -0.0009
     76  CD2       35.2730   30.4470   23.8160 C.ar  561  TYR561     -0.0009
     77  CE1       34.2150   28.1930   22.5620 C.ar  561  TYR561      0.0417
     78  CE2       34.8130   29.3640   24.5830 C.ar  561  TYR561      0.0417
     79  CZ        34.2840   28.2450   23.9490 C.ar  561  TYR561      0.1957
     80  OH        33.7980   27.1970   24.6950 O.3   561  TYR561     -0.2866
     81  N         32.4340   32.1940   21.4390 N.am  562  LYS562     -0.1980
     82  CA        31.1130   31.6520   21.1050 C.3   562  LYS562      0.1596
     83  C         30.4010   32.5750   20.1090 C.2   562  LYS562      0.2287
     84  O         29.4130   32.1830   19.4810 O.2   562  LYS562     -0.2864
     85  CB        30.2640   31.4820   22.3690 C.3   562  LYS562      0.0298
     86  CG        30.9890   30.8060   23.5330 C.3   562  LYS562      0.0038
     87  CD        30.5670   29.3560   23.7000 C.3   562  LYS562      0.0206
     88  CE        30.5690   28.9310   25.1650 C.3   562  LYS562      0.1093
     89  NZ        30.6970   27.4500   25.3000 N.3   562  LYS562     -0.1314
     90  N         37.5920   26.3360   18.0290 N.3   659  THR659     -0.1203
     91  CA        37.5950   26.8720   19.3940 C.3   659  THR659      0.1994
     92  C         36.6600   26.1680   20.3900 C.2   659  THR659      0.2618
     93  O         36.9740   26.0730   21.5720 O.2   659  THR659     -0.2717
     94  CB        37.2840   28.3850   19.3870 C.3   659  THR659      0.1784
     95  OG1       35.9250   28.6040   18.9900 O.3   659  THR659     -0.2211
     96  CG2       38.1830   29.0920   18.4120 C.3   659  THR659      0.0376
     97  N         35.5180   25.6740   19.9190 N.am  660  GLU660     -0.1965
     98  CA        34.5560   24.9710   20.7730 C.3   660  GLU660      0.1733
     99  C         34.9250   23.4970   20.7380 C.2   660  GLU660      0.2616
    100  O         34.6650   22.8370   19.7550 O.2   660  GLU660     -0.2715
    101  CB        33.1360   25.1800   20.2230 C.3   660  GLU660      0.0429
    102  CG        31.9980   24.6850   21.1050 C.3   660  GLU660      0.1163
    103  CD        31.8600   25.4740   22.4020 C.2   660  GLU660      0.3649
    104  OE1       32.5470   25.1320   23.3880 O.co2 660  GLU660     -0.2457
    105  OE2       31.0680   26.4390   22.4390 O.co2 660  GLU660     -0.2457
    106  N         35.5280   22.9800   21.8060 N.am  661  ALA661     -0.1963
    107  CA        35.9630   21.5800   21.8400 C.3   661  ALA661      0.1728
    108  C         34.9250   20.5800   21.3600 C.2   661  ALA661      0.2617
    109  O         35.2430   19.6420   20.6150 O.2   661  ALA661     -0.2715
    110  CB        36.4350   21.2010   23.2420 C.3   661  ALA661      0.0334
    111  N         33.6860   20.7700   21.8030 N.am  662  SER662     -0.1936
    112  CA        32.5970   19.8950   21.4000 C.3   662  SER662      0.2055
    113  C         31.2600   20.6100   21.4360 C.2   662  SER662      0.2644
    114  O         30.6300   20.8190   20.3950 O.2   662  SER662     -0.2714
    115  CB        32.5120   18.6650   22.2990 C.3   662  SER662      0.2130
    116  OG        31.2680   18.0100   22.0940 O.3   662  SER662     -0.2179
    117  N         30.8490   21.0020   22.6390 N.am  663  GLY663     -0.1939
    118  CA        29.5680   21.6550   22.8280 C.3   663  GLY663      0.2014
    119  C         28.6120   20.5120   23.1270 C.2   663  GLY663      0.2639
    120  O         28.9240   19.3560   22.7980 O.2   663  GLY663     -0.2714
    121  N         27.4750   20.8060   23.7580 N.am  664  THR664     -0.1950
    122  CA        26.4910   19.7720   24.0780 C.3   664  THR664      0.1897
    123  C         25.0980   20.3740   23.9450 C.2   664  THR664      0.2313
    124  O         24.1040   19.6590   23.7510 O.2   664  THR664     -0.2863
    125  CB        26.6950   19.2050   25.5130 C.3   664  THR664      0.1794
    126  OG1       27.0810   20.2610   26.4020 O.3   664  THR664     -0.2208
    127  CG2       27.7840   18.1330   25.5190 C.3   664  THR664      0.0378
@<TRIPOS>BOND
     1    90    91    1
     2    96    94    1
     3    95    94    1
     4    94    91    1
     5    91    92    1
     6    84    83    2
     7    72    71    2
     8   100    99    2
     9    97    92   am
    10    97    98    1
    11    83    82    1
    12   101    98    1
    13   101   102    1
    14    92    93    2
    15   114   113    2
    16    71    70    1
    17    71    81   am
    18   109   108    2
    19    99    98    1
    20    99   106   am
    21    70    73    1
    22    70    69    1
    23    82    81    1
    24    82    85    1
    25   102   103    1
    26   108   111   am
    27   108   107    1
    28   112   113    1
    29   112   111    1
    30   112   115    1
    31   113   117   am
    32    73    74    1
    33    75    74   ar
    34    75    77   ar
    35   106   107    1
    36   107   110    1
    37   116   115    1
    38    56    57    2
    39    56    55    1
    40    85    86    1
    41   103   105   ar
    42   103   104   ar
    43    74    76   ar
    44    77    79   ar
    45    64    63    2
    46   117   118    1
    47   120   119    2
    48   118   119    1
    49    61    62    1
    50   119   121   am
    51    54    55    1
    52    55    58    1
    53    86    87    1
    54    87    88    1
    55    63    62    1
    56   124   123    2
    57   121   122    1
    58    76    78   ar
    59   123   122    1
    60    79    78   ar
    61    79    80    1
    62   122   125    1
    63    62    65    1
    64    60    58    1
    65    65    66    1
    66    58    59    1
    67    49    48    1
    68    49    50    2
    69    88    89    1
    70    66    67    2
    71    66    68   am
    72   125   127    1
    73   125   126    1
    74    48    47    1
    75    48    51    1
    76    52    51    1
    77    40    39    2
    78    47    39   am
    79    51    53    1
    80    39    38    1
    81    38    37    1
    82    38    41    1
    83    35    34    2
    84    36    34   am
    85    34    33    1
    86    19    18    1
    87    41    42    1
    88    33    30    1
    89    43    42   ar
    90    43    45   ar
    91    42    44   ar
    92    32    31    2
    93    27    26   ar
    94    20    18    1
    95    18    17    1
    96     2     1    1
    97     2     3    1
    98    45    46   ar
    99    30    31    1
   100    30    29    1
   101    44    46   ar
   102     3     4    2
   103     3     5   am
   104    17    14    1
   105    26    28   ar
   106    26    25    1
   107    24    23    2
   108     5     6    1
   109    29    23   am
   110    14    13    1
   111    14    15    1
   112    23    22    1
   113    25    22    1
   114     6     9    1
   115     6     7    1
   116    16    15    2
   117     9    10    1
   118    22    21    1
   119    11    10    1
   120     7     8    2
   121    10    12    1
