@<TRIPOS>MOLECULE
tmp/1ggdC00.pdb
 108 107 0 0 0
SMALL
GASTEIGER

@<TRIPOS>ATOM
      1  N         19.2840    5.6740   46.1450 N.3    39  SER39      -0.1202
      2  CA        20.6210    5.5940   45.5820 C.3    39  SER39       0.2020
      3  C         20.6370    4.9190   44.2200 C.2    39  SER39       0.2619
      4  O         19.9060    3.9600   43.9860 O.2    39  SER39      -0.2717
      5  CB        21.5520    4.8220   46.5240 C.3    39  SER39       0.2103
      6  OG        22.8360    4.6320   45.9480 O.3    39  SER39      -0.2182
      7  N         21.4610    5.4430   43.3160 N.am   40  SER40      -0.1937
      8  CA        21.6280    4.8210   42.0070 C.3    40  SER40       0.2055
      9  C         22.4210    3.5650   42.3830 C.2    40  SER40       0.2643
     10  O         22.9760    3.4910   43.4820 O.2    40  SER40      -0.2714
     11  CB        22.4570    5.7220   41.0870 C.3    40  SER40       0.2130
     12  OG        21.7040    6.8490   40.6800 O.3    40  SER40      -0.2179
     13  N         22.4760    2.5760   41.5060 N.am   41  CYS41      -0.1953
     14  CA        23.2010    1.3510   41.8380 C.3    41  CYS41       0.1843
     15  C         23.7430    0.7110   40.5670 C.2    41  CYS41       0.2625
     16  O         23.5590    1.2450   39.4710 O.2    41  CYS41      -0.2714
     17  CB        22.2540    0.3890   42.5730 C.3    41  CYS41       0.0997
     18  SG        23.0140   -0.9170   43.6030 S.3    41  CYS41      -0.0797
     19  N         24.4170   -0.4240   40.7100 N.am   42  MET42      -0.1963
     20  CA        24.9760   -1.1130   39.5510 C.3    42  MET42       0.1736
     21  C         23.8860   -1.3230   38.5040 C.2    42  MET42       0.2617
     22  O         22.7750   -1.7580   38.8260 O.2    42  MET42      -0.2715
     23  CB        25.5710   -2.4610   39.9680 C.3    42  MET42       0.0427
     24  CG        26.9210   -2.3550   40.6610 C.3    42  MET42       0.0599
     25  SD        26.7860   -1.8630   42.4040 S.3    42  MET42      -0.1393
     26  CE        25.7210   -3.1340   43.0210 C.3    42  MET42       0.0692
     27  N         24.2110   -1.0090   37.2540 N.am   43  GLY43      -0.1955
     28  CA        23.2470   -1.1520   36.1790 C.3    43  GLY43       0.1869
     29  C         22.6490    0.1860   35.7770 C.2    43  GLY43       0.2309
     30  O         22.1420    0.3310   34.6620 O.2    43  GLY43      -0.2863
     31  N         24.4810    2.9920   35.7690 N.3    45  SER45      -0.1217
     32  CA        25.5840    3.7310   35.1540 C.3    45  SER45       0.1889
     33  C         25.3180    4.1340   33.7110 C.2    45  SER45       0.2288
     34  O         24.7820    3.3540   32.9310 O.2    45  SER45      -0.2866
     35  CB        26.8700    2.9030   35.2060 C.3    45  SER45       0.2089
     36  OG        27.4550    2.9380   36.4890 O.3    45  SER45      -0.2183
     37  N         25.0170    8.9990   35.5240 N.3    63  VAL63      -0.1231
     38  CA        25.3210    8.0830   36.6260 C.3    63  VAL63       0.1692
     39  C         26.7260    7.5100   36.4280 C.2    63  VAL63       0.2593
     40  O         27.0130    6.8910   35.4000 O.2    63  VAL63      -0.2718
     41  CB        24.2850    6.9370   36.7040 C.3    63  VAL63       0.0266
     42  CG1       24.5420    6.0820   37.9370 C.3    63  VAL63       0.0020
     43  CG2       22.8740    7.5210   36.7390 C.3    63  VAL63       0.0020
     44  N         27.5910    7.7230   37.4210 N.am   64  SER64      -0.1938
     45  CA        28.9800    7.2770   37.3440 C.3    64  SER64       0.2055
     46  C         29.3910    6.2460   38.3980 C.2    64  SER64       0.2643
     47  O         29.6110    5.0760   38.0730 O.2    64  SER64      -0.2714
     48  CB        29.9020    8.5030   37.4120 C.3    64  SER64       0.2130
     49  OG        31.2360    8.1840   37.0440 O.3    64  SER64      -0.2179
     50  N         29.5070    6.6660   39.6540 N.am   65  TRP65      -0.1959
     51  CA        29.9030    5.7330   40.7050 C.3    65  TRP65       0.1771
     52  C         29.3780    6.1540   42.0600 C.2    65  TRP65       0.2620
     53  O         28.7690    7.2120   42.2010 O.2    65  TRP65      -0.2715
     54  CB        31.4330    5.6120   40.7670 C.3    65  TRP65       0.0590
     55  CG        32.1490    6.9100   41.0560 C.ar   65  TRP65       0.0006
     56  CD1       32.4710    7.8880   40.1570 C.ar   65  TRP65       0.0946
     57  CD2       32.6590    7.3510   42.3250 C.ar   65  TRP65       0.0152
     58  NE1       33.1500    8.9080   40.7820 N.ar   65  TRP65      -0.2442
     59  CE2       33.2790    8.6030   42.1130 C.ar   65  TRP65       0.0810
     60  CE3       32.6530    6.8080   43.6190 C.ar   65  TRP65       0.0012
     61  CZ2       33.8900    9.3240   43.1490 C.ar   65  TRP65       0.0191
     62  CZ3       33.2610    7.5260   44.6520 C.ar   65  TRP65       0.0001
     63  CH2       33.8700    8.7690   44.4080 C.ar   65  TRP65       0.0015
     64  N         29.6220    5.3190   43.0600 N.am   66  GLY66      -0.1940
     65  CA        29.1700    5.6320   44.4000 C.3    66  GLY66       0.2014
     66  C         29.5270    4.5380   45.3850 C.2    66  GLY66       0.2640
     67  O         30.5140    3.8260   45.2060 O.2    66  GLY66      -0.2714
     68  N         28.7110    4.4040   46.4220 N.am   67  SER67      -0.1935
     69  CA        28.9220    3.3960   47.4510 C.3    67  SER67       0.2055
     70  C         28.9010    1.9930   46.8600 C.2    67  SER67       0.2643
     71  O         28.0150    1.6480   46.0760 O.2    67  SER67      -0.2714
     72  CB        27.8400    3.5200   48.5280 C.3    67  SER67       0.2130
     73  OG        27.5900    2.2750   49.1510 O.3    67  SER67      -0.2179
     74  N         29.8840    1.1860   47.2500 N.am   68  SER68      -0.1949
     75  CA        30.0050   -0.1870   46.7780 C.3    68  SER68       0.1924
     76  C         28.7770   -1.0250   47.1160 C.2    68  SER68       0.2314
     77  O         28.5330   -2.0580   46.4910 O.2    68  SER68      -0.2863
     78  CB        31.2490   -0.8410   47.3890 C.3    68  SER68       0.2116
     79  OG        30.9700   -2.1630   47.8230 O.3    68  SER68      -0.2180
     80  N         25.6830    0.5610   47.4570 N.3    70  CYS70      -0.1235
     81  CA        24.5570    1.4170   47.1010 C.3    70  CYS70       0.1677
     82  C         23.8070    1.9260   48.3330 C.2    70  CYS70       0.2270
     83  O         22.5770    1.9440   48.3620 O.2    70  CYS70      -0.2867
     84  CB        23.6060    0.6610   46.1700 C.3    70  CYS70       0.0956
     85  SG        24.4580    0.0140   44.6950 S.3    70  CYS70      -0.0801
     86  N         25.5840    9.6240   45.6800 N.3    76  GLY76      -0.1210
     87  CA        26.0530    9.0010   44.4600 C.3    76  GLY76       0.1956
     88  C         26.8560   10.0500   43.7150 C.2    76  GLY76       0.2612
     89  O         26.6460   11.2430   43.9250 O.2    76  GLY76      -0.2717
     90  N         27.7810    9.6240   42.8580 N.am   77  VAL77      -0.1965
     91  CA        28.5940   10.5670   42.1010 C.3    77  VAL77       0.1727
     92  C         28.2680   10.4380   40.6100 C.2    77  VAL77       0.2616
     93  O         28.2230    9.3400   40.0530 O.2    77  VAL77      -0.2715
     94  CB        30.1020   10.3360   42.3550 C.3    77  VAL77       0.0290
     95  CG1       30.9040   11.5060   41.8180 C.3    77  VAL77       0.0023
     96  CG2       30.3500   10.1790   43.8570 C.3    77  VAL77       0.0023
     97  N         28.0260   11.5860   39.9880 N.am   78  TYR78      -0.1974
     98  CA        27.6420   11.6660   38.5870 C.3    78  TYR78       0.1639
     99  C         28.6170   12.5370   37.7980 C.2    78  TYR78       0.2290
    100  O         29.2380   13.4400   38.3520 O.2    78  TYR78      -0.2864
    101  CB        26.2270   12.2660   38.4900 C.3    78  TYR78       0.0560
    102  CG        25.1850   11.5430   39.3250 C.ar   78  TYR78      -0.0198
    103  CD1       25.1830   11.6380   40.7200 C.ar   78  TYR78      -0.0009
    104  CD2       24.2330   10.7240   38.7220 C.ar   78  TYR78      -0.0009
    105  CE1       24.2600   10.9240   41.4920 C.ar   78  TYR78       0.0417
    106  CE2       23.3070   10.0080   39.4820 C.ar   78  TYR78       0.0417
    107  CZ        23.3300   10.1100   40.8670 C.ar   78  TYR78       0.1957
    108  OH        22.4360    9.3790   41.6130 O.3    78  TYR78      -0.2866
@<TRIPOS>BOND
     1    34    33    2
     2    33    32    1
     3    30    29    2
     4    32    35    1
     5    32    31    1
     6    35    36    1
     7    40    39    2
     8    37    38    1
     9    29    28    1
    10    28    27    1
    11    39    38    1
    12    39    44   am
    13    38    41    1
    14    41    43    1
    15    41    42    1
    16    49    48    1
    17    27    21   am
    18    45    48    1
    19    45    44    1
    20    45    46    1
    21    99   100    2
    22    99    98    1
    23    47    46    2
    24    46    50   am
    25   101    98    1
    26   101   102    1
    27    21    22    2
    28    21    20    1
    29    98    97    1
    30   104   102   ar
    31   104   106   ar
    32   102   103   ar
    33    16    15    2
    34   106   107   ar
    35    20    23    1
    36    20    19    1
    37    50    51    1
    38    23    24    1
    39    97    92   am
    40    93    92    2
    41    56    58   ar
    42    56    55   ar
    43    15    19   am
    44    15    14    1
    45    92    91    1
    46    24    25    1
    47    12    11    1
    48    51    54    1
    49    51    52    1
    50   103   105   ar
    51    54    55    1
    52    58    59   ar
    53   107   105   ar
    54   107   108    1
    55    55    57   ar
    56    11     8    1
    57    13    14    1
    58    13     9   am
    59    95    94    1
    60    14    17    1
    61     8     9    1
    62     8     7    1
    63    52    53    2
    64    52    64   am
    65    91    94    1
    66    91    90    1
    67    59    57   ar
    68    59    61   ar
    69    57    60   ar
    70    94    96    1
    71     9    10    2
    72    25    26    1
    73    17    18    1
    74    90    88   am
    75    64    65    1
    76    61    63   ar
    77     7     3   am
    78    18    85    1
    79    60    62   ar
    80    88    89    2
    81    88    87    1
    82     4     3    2
    83     3     2    1
    84    65    66    1
    85    63    62   ar
    86    87    86    1
    87    85    84    1
    88    67    66    2
    89    66    68   am
    90     2     1    1
    91     2     5    1
    92     6     5    1
    93    71    70    2
    94    84    81    1
    95    68    69    1
    96    77    76    2
    97    75    76    1
    98    75    74    1
    99    75    78    1
   100    70    74   am
   101    70    69    1
   102    81    80    1
   103    81    82    1
   104    78    79    1
   105    69    72    1
   106    82    83    2
   107    72    73    1
