@<TRIPOS>MOLECULE
tmp/1ggiD00.pdb
 103 97 0 0 0
SMALL
GASTEIGER

@<TRIPOS>ATOM
      1  N          1.2470   34.2900  -30.7980 N.3    36  PHE36      -0.1241
      2  CA         1.4770   32.9010  -30.5090 C.3    36  PHE36       0.1605
      3  C          2.4710   32.6210  -29.4100 C.2    36  PHE36       0.2264
      4  O          3.3610   31.7920  -29.5230 O.2    36  PHE36      -0.2867
      5  CB         1.8110   32.2900  -31.8500 C.3    36  PHE36       0.0534
      6  CG         0.4910   32.2230  -32.6320 C.ar   36  PHE36      -0.0203
      7  CD1       -0.5160   31.3700  -32.2510 C.ar   36  PHE36      -0.0042
      8  CD2        0.2720   33.0270  -33.7180 C.ar   36  PHE36      -0.0042
      9  CE1       -1.7040   31.3280  -32.9320 C.ar   36  PHE36      -0.0003
     10  CE2       -0.9180   32.9750  -34.3930 C.ar   36  PHE36      -0.0003
     11  CZ        -1.9040   32.1300  -34.0010 C.ar   36  PHE36      -0.0000
     12  N          2.6320   31.4540  -25.3270 N.3    38  HIS38      -0.1241
     13  CA         1.7780   30.7090  -24.4130 C.3    38  HIS38       0.1621
     14  C          2.5400   30.3060  -23.1950 C.2    38  HIS38       0.2264
     15  O          3.7650   30.2660  -23.2570 O.2    38  HIS38      -0.2867
     16  CB         1.2400   29.4160  -25.0080 C.3    38  HIS38       0.0745
     17  CG         0.8380   29.4170  -26.4820 C.ar   38  HIS38       0.0817
     18  ND1       -0.3090   29.7630  -27.0600 N.ar   38  HIS38      -0.2268
     19  CD2        1.7260   29.0480  -27.4610 C.ar   38  HIS38       0.1154
     20  CE1       -0.1350   29.6420  -28.3360 C.ar   38  HIS38       0.1986
     21  NE2        1.0890   29.2190  -28.5540 N.ar   38  HIS38      -0.2212
     22  N          3.0930   27.7270  -19.6170 N.3    40  TYR40      -0.1241
     23  CA         3.0840   26.4140  -18.9610 C.3    40  TYR40       0.1605
     24  C          3.5080   26.3100  -17.4920 C.2    40  TYR40       0.2264
     25  O          4.4720   26.9370  -17.0720 O.2    40  TYR40      -0.2867
     26  CB         4.0140   25.4150  -19.6900 C.3    40  TYR40       0.0534
     27  CG         3.5040   25.0020  -21.0210 C.ar   40  TYR40      -0.0201
     28  CD1        3.6640   25.8820  -22.0500 C.ar   40  TYR40      -0.0009
     29  CD2        2.8670   23.8070  -21.1610 C.ar   40  TYR40      -0.0009
     30  CE1        3.1340   25.5850  -23.2690 C.ar   40  TYR40       0.0417
     31  CE2        2.3360   23.5120  -22.3870 C.ar   40  TYR40       0.0417
     32  CZ         2.4900   24.3970  -23.4300 C.ar   40  TYR40       0.1957
     33  OH         2.0020   24.0990  -24.6780 O.3    40  TYR40      -0.2866
     34  N         -0.3150   23.3580  -19.7060 N.3    50  LEU50      -0.1245
     35  CA        -0.5780   24.6530  -20.3070 C.3    50  LEU50       0.1561
     36  C         -1.5550   25.4410  -19.4420 C.2    50  LEU50       0.2260
     37  O         -2.5540   24.9140  -19.0180 O.2    50  LEU50      -0.2867
     38  CB        -1.1170   24.4170  -21.7430 C.3    50  LEU50       0.0270
     39  CG        -1.6420   25.5720  -22.6590 C.3    50  LEU50       0.0019
     40  CD1       -0.5810   26.5750  -22.9430 C.3    50  LEU50       0.0001
     41  CD2       -2.0160   25.0640  -24.0020 C.3    50  LEU50       0.0001
     42  N         -2.9870   30.3900  -23.2240 N.3    53  TYR53      -0.1227
     43  CA        -2.6470   30.2710  -24.6300 C.3    53  TYR53       0.1736
     44  C         -2.8430   31.5710  -25.3910 C.2    53  TYR53       0.2595
     45  O         -3.7040   32.3830  -25.0770 O.2    53  TYR53      -0.2718
     46  CB        -3.4850   29.1460  -25.3440 C.3    53  TYR53       0.0548
     47  CG        -4.9970   29.1820  -25.1860 C.ar   53  TYR53      -0.0200
     48  CD1       -5.5700   28.9450  -23.9610 C.ar   53  TYR53      -0.0009
     49  CD2       -5.8260   29.5180  -26.2330 C.ar   53  TYR53      -0.0009
     50  CE1       -6.9300   29.0520  -23.7600 C.ar   53  TYR53       0.0417
     51  CE2       -7.1990   29.6240  -26.0470 C.ar   53  TYR53       0.0417
     52  CZ        -7.7310   29.3980  -24.7990 C.ar   53  TYR53       0.1957
     53  OH        -9.0730   29.5710  -24.5560 O.3    53  TYR53      -0.2866
     54  N         -1.9430   31.8400  -26.3410 N.am   54  ARG54      -0.1980
     55  CA        -2.0660   32.9810  -27.2380 C.3    54  ARG54       0.1597
     56  C         -2.0710   34.3600  -26.6180 C.2    54  ARG54       0.2287
     57  O         -2.6850   35.3180  -27.0680 O.2    54  ARG54      -0.2864
     58  CB        -3.2950   32.8530  -28.0740 C.3    54  ARG54       0.0334
     59  CG        -3.0830   31.8680  -29.1540 C.3    54  ARG54       0.0492
     60  CD        -3.8100   32.4090  -30.3280 C.3    54  ARG54       0.2205
     61  NE        -5.2090   32.7020  -30.0460 N.pl3  54  ARG54      -0.0865
     62  CZ        -6.1780   31.7640  -29.9760 C.cat  54  ARG54       0.5346
     63  NH1       -5.9110   30.4840  -30.1470 N.pl3  54  ARG54       0.1354
     64  NH2       -7.4720   32.1130  -29.8400 N.pl3  54  ARG54       0.1354
     65  N         -6.8300   28.6400  -20.1410 N.3    59  ILE59      -0.1245
     66  CA        -7.5350   27.3670  -20.2250 C.3    59  ILE59       0.1561
     67  C         -8.4750   27.1640  -19.0470 C.2    59  ILE59       0.2260
     68  O         -8.0300   27.2580  -17.9020 O.2    59  ILE59      -0.2867
     69  CB        -6.4950   26.2290  -20.2900 C.3    59  ILE59       0.0252
     70  CG1       -5.8970   26.2780  -21.6340 C.3    59  ILE59       0.0019
     71  CG2       -7.0580   24.8280  -20.1510 C.3    59  ILE59       0.0019
     72  CD1       -4.4950   26.7090  -21.3940 C.3    59  ILE59       0.0001
     73  N          6.1970   29.8240  -24.1980 N.3    93  GLN93      -0.1245
     74  CA         6.3860   29.0570  -25.4010 C.3    93  GLN93       0.1566
     75  C          5.9620   29.7730  -26.6730 C.2    93  GLN93       0.2260
     76  O          4.9180   30.4490  -26.6620 O.2    93  GLN93      -0.2867
     77  CB         5.5920   27.7800  -25.3090 C.3    93  GLN93       0.0367
     78  CG         5.7820   26.8560  -26.5220 C.3    93  GLN93       0.0905
     79  CD         4.7290   25.7870  -26.6540 C.2    93  GLN93       0.2608
     80  OE1        3.6020   25.9690  -26.2660 O.2    93  GLN93      -0.2717
     81  NE2        4.9790   24.6330  -27.2090 N.am   93  GLN93      -0.0878
     82  N          4.7100   29.3600  -30.6300 N.3    95  SER95      -0.1217
     83  CA         4.2960   28.5750  -31.7830 C.3    95  SER95       0.1889
     84  C          3.9620   29.4290  -33.0120 C.2    95  SER95       0.2288
     85  O          3.0470   29.1610  -33.7840 O.2    95  SER95      -0.2866
     86  CB         3.0700   27.7450  -31.5080 C.3    95  SER95       0.2089
     87  OG         1.8770   28.3850  -31.0920 O.3    95  SER95      -0.2183
     88  N          8.2370   27.3730  -36.6450 N.3    98  ASP98      -0.1239
     89  CA         9.0930   26.3800  -36.0560 C.3    98  ASP98       0.1674
     90  C         10.5650   26.5860  -36.4110 C.2    98  ASP98       0.2266
     91  O         10.8820   27.3470  -37.3400 O.2    98  ASP98      -0.2867
     92  CB         8.5730   24.9140  -36.4190 C.3    98  ASP98       0.1410
     93  CG         7.6360   24.7180  -37.6170 C.2    98  ASP98       0.3668
     94  OD1        8.1850   24.5450  -38.7210 O.co2  98  ASP98      -0.2456
     95  OD2        6.3930   24.7200  -37.4500 O.co2  98  ASP98      -0.2456
     96  N          9.4710   25.2710  -32.8050 N.3   100  LEU100     -0.1245
     97  CA         8.7840   25.8250  -31.6460 C.3   100  LEU100      0.1561
     98  C          9.8220   25.8050  -30.5270 C.2   100  LEU100      0.2260
     99  O         10.5370   24.8170  -30.2970 O.2   100  LEU100     -0.2867
    100  CB         7.6280   25.0100  -31.1250 C.3   100  LEU100      0.0270
    101  CG         6.5880   24.4060  -32.0070 C.3   100  LEU100      0.0019
    102  CD1        5.5270   23.9770  -31.0320 C.3   100  LEU100      0.0001
    103  CD2        6.0170   25.3350  -33.0560 C.3   100  LEU100      0.0001
@<TRIPOS>BOND
     1    94    93   ar
     2    93    95   ar
     3    93    92    1
     4    91    90    2
     5    88    89    1
     6    92    89    1
     7    90    89    1
     8    10    11   ar
     9    10     8   ar
    10    11     9   ar
    11    85    84    2
    12     8     6   ar
    13   103   101    1
    14    84    83    1
    15     9     7   ar
    16    96    97    1
    17     6     7   ar
    18     6     5    1
    19   101   100    1
    20   101   102    1
    21     5     2    1
    22    83    86    1
    23    83    82    1
    24    97   100    1
    25    97    98    1
    26    86    87    1
    27     1     2    1
    28    98    99    2
    29     2     3    1
    30    60    61    1
    31    60    59    1
    32    63    62    1
    33    61    62    2
    34    62    64    1
    35     4     3    2
    36    59    58    1
    37    21    20   ar
    38    21    19   ar
    39    20    18   ar
    40    58    55    1
    41    19    17   ar
    42    55    56    1
    43    55    54    1
    44    81    79   am
    45    57    56    2
    46    18    17   ar
    47    75    76    2
    48    75    74    1
    49    79    78    1
    50    79    80    2
    51    78    77    1
    52    17    16    1
    53    54    44   am
    54    49    51   ar
    55    49    47   ar
    56    51    52   ar
    57    74    77    1
    58    74    73    1
    59    44    45    2
    60    44    43    1
    61    46    47    1
    62    46    43    1
    63    12    13    1
    64    47    48   ar
    65    16    13    1
    66    52    53    1
    67    52    50   ar
    68    33    32    1
    69    43    42    1
    70    13    14    1
    71    41    39    1
    72    48    50   ar
    73    32    30   ar
    74    32    31   ar
    75    30    28   ar
    76    15    14    2
    77    40    39    1
    78    39    38    1
    79    31    29   ar
    80    28    27   ar
    81    38    35    1
    82    70    72    1
    83    70    69    1
    84    29    27   ar
    85    27    26    1
    86    35    34    1
    87    35    36    1
    88    69    66    1
    89    69    71    1
    90    66    65    1
    91    66    67    1
    92    26    23    1
    93    22    23    1
    94    36    37    2
    95    67    68    2
    96    23    24    1
    97    24    25    2
