@<TRIPOS>MOLECULE
tmp/1ggmB00.pdb
 188 177 0 0 0
SMALL
GASTEIGER

@<TRIPOS>ATOM
      1  N         35.3960   35.8160   55.7600 N.3   125  GLU125     -0.1245
      2  CA        35.1510   37.2510   55.5350 C.3   125  GLU125      0.1567
      3  C         35.5730   37.6250   54.1170 C.2   125  GLU125      0.2260
      4  O         36.5530   37.0720   53.6120 O.2   125  GLU125     -0.2867
      5  CB        35.9470   38.0950   56.5370 C.3   125  GLU125      0.0388
      6  CG        37.4420   37.8210   56.5370 C.3   125  GLU125      0.1160
      7  CD        38.1490   38.4530   57.7190 C.2   125  GLU125      0.3649
      8  OE1       37.7140   38.2020   58.8800 O.co2 125  GLU125     -0.2457
      9  OE2       39.1340   39.1920   57.4740 O.co2 125  GLU125     -0.2457
     10  N         36.8940   40.4060   53.1090 N.3   127  ALA127     -0.1245
     11  CA        38.1460   41.1490   53.1960 C.3   127  ALA127      0.1562
     12  C         39.4020   40.6250   52.4850 C.2   127  ALA127      0.2260
     13  O         40.0380   41.3570   51.7170 O.2   127  ALA127     -0.2867
     14  CB        38.4590   41.4600   54.6680 C.3   127  ALA127      0.0290
     15  N         30.9060   31.0000   58.2870 N.3   157  ARG157     -0.1245
     16  CA        31.5770   30.8360   59.5600 C.3   157  ARG157      0.1563
     17  C         30.8820   29.7320   60.3290 C.2   157  ARG157      0.2260
     18  O         29.6830   29.7930   60.5940 O.2   157  ARG157     -0.2867
     19  CB        31.5250   32.1510   60.3710 C.3   157  ARG157      0.0307
     20  CG        32.1960   33.3860   59.7350 C.3   157  ARG157      0.0489
     21  CD        33.6250   33.5860   60.1980 C.3   157  ARG157      0.2205
     22  NE        34.0620   34.9600   59.9810 N.pl3 157  ARG157     -0.0865
     23  CZ        33.5860   36.0200   60.6310 C.cat 157  ARG157      0.5346
     24  NH1       32.6530   35.8760   61.5630 N.pl3 157  ARG157      0.1354
     25  NH2       34.0200   37.2360   60.3240 N.pl3 157  ARG157      0.1354
     26  N         30.1990   29.1000   63.0850 N.3   159  GLU159     -0.1245
     27  CA        29.6760   29.5760   64.3590 C.3   159  GLU159      0.1567
     28  C         29.1870   28.4950   65.3100 C.2   159  GLU159      0.2260
     29  O         28.0430   28.0360   65.1880 O.2   159  GLU159     -0.2867
     30  CB        28.5420   30.5430   64.0980 C.3   159  GLU159      0.0388
     31  CG        28.5600   31.6530   65.0870 C.3   159  GLU159      0.1160
     32  CD        29.9410   32.1650   65.2430 C.2   159  GLU159      0.3649
     33  OE1       30.3600   32.9930   64.3920 O.co2 159  GLU159     -0.2457
     34  OE2       30.6090   31.6690   66.1810 O.co2 159  GLU159     -0.2457
     35  N         21.1200   37.0480   63.0040 N.3   167  PHE167     -0.1227
     36  CA        22.1700   37.8600   63.6140 C.3   167  PHE167      0.1736
     37  C         23.5390   37.2000   63.5040 C.2   167  PHE167      0.2595
     38  O         24.4090   37.6370   62.7450 O.2   167  PHE167     -0.2718
     39  CB        21.7990   38.0930   65.0800 C.3   167  PHE167      0.0547
     40  CG        22.5300   39.2200   65.7190 C.ar  167  PHE167     -0.0202
     41  CD1       23.9010   39.1420   65.9460 C.ar  167  PHE167     -0.0042
     42  CD2       21.8480   40.3610   66.1090 C.ar  167  PHE167     -0.0042
     43  CE1       24.5830   40.1820   66.5510 C.ar  167  PHE167     -0.0003
     44  CE2       22.5210   41.4090   66.7170 C.ar  167  PHE167     -0.0003
     45  CZ        23.8950   41.3180   66.9390 C.ar  167  PHE167     -0.0000
     46  N         23.7550   36.2260   64.3760 N.am  168  ARG168     -0.1966
     47  CA        24.9760   35.4470   64.3900 C.3   168  ARG168      0.1729
     48  C         24.4820   34.1760   63.7080 C.2   168  ARG168      0.2616
     49  O         23.4940   33.5620   64.1430 O.2   168  ARG168     -0.2715
     50  CB        25.4210   35.1970   65.8360 C.3   168  ARG168      0.0348
     51  CG        26.8030   34.5840   66.0350 C.3   168  ARG168      0.0492
     52  CD        27.2850   34.8690   67.4580 C.3   168  ARG168      0.2205
     53  NE        28.3250   33.9480   67.9190 N.pl3 168  ARG168     -0.0865
     54  CZ        29.3530   34.2970   68.7040 C.cat 168  ARG168      0.5346
     55  NH1       29.4930   35.5540   69.1160 N.pl3 168  ARG168      0.1354
     56  NH2       30.2310   33.3790   69.1180 N.pl3 168  ARG168      0.1354
     57  N         25.0380   33.9230   62.5290 N.am  169  VAL169     -0.1977
     58  CA        24.6860   32.7620   61.7200 C.3   169  VAL169      0.1596
     59  C         25.9450   32.1490   61.1370 C.2   169  VAL169      0.2287
     60  O         27.0620   32.6450   61.3960 O.2   169  VAL169     -0.2864
     61  CB        23.7190   33.1290   60.5600 C.3   169  VAL169      0.0276
     62  CG1       22.2800   33.2370   61.0760 C.3   169  VAL169      0.0022
     63  CG2       24.1610   34.4270   59.8920 C.3   169  VAL169      0.0022
     64  N         26.4330   34.2580   55.7110 N.3   172  PHE172     -0.1241
     65  CA        25.9420   35.6200   55.6320 C.3   172  PHE172      0.1605
     66  C         26.7410   36.4110   54.6220 C.2   172  PHE172      0.2264
     67  O         27.7130   35.9100   54.0480 O.2   172  PHE172     -0.2867
     68  CB        26.0800   36.2840   57.0070 C.3   172  PHE172      0.0534
     69  CG        27.4780   36.1860   57.5960 C.ar  172  PHE172     -0.0203
     70  CD1       28.0040   34.9610   57.9860 C.ar  172  PHE172     -0.0042
     71  CD2       28.2880   37.3110   57.7080 C.ar  172  PHE172     -0.0042
     72  CE1       29.3010   34.8610   58.4650 C.ar  172  PHE172     -0.0003
     73  CE2       29.5900   37.2100   58.1850 C.ar  172  PHE172     -0.0003
     74  CZ        30.0930   35.9890   58.5590 C.ar  172  PHE172     -0.0000
     75  N         28.5470   40.3110   53.7760 N.3   174  GLN174     -0.1245
     76  CA        29.0830   41.4940   54.3560 C.3   174  GLN174      0.1566
     77  C         29.3320   42.5000   53.2320 C.2   174  GLN174      0.2260
     78  O         29.4940   42.1300   52.0700 O.2   174  GLN174     -0.2867
     79  CB        30.4100   41.1530   55.0110 C.3   174  GLN174      0.0367
     80  CG        30.3620   40.0210   55.9850 C.3   174  GLN174      0.0905
     81  CD        31.7490   39.5480   56.3580 C.2   174  GLN174      0.2608
     82  OE1       32.5450   39.1680   55.4970 O.2   174  GLN174     -0.2717
     83  NE2       32.0580   39.5940   57.6360 N.am  174  GLN174     -0.0878
     84  N         32.0280   45.0680   52.6750 N.3   176  GLU176     -0.1245
     85  CA        33.3150   45.5250   53.1820 C.3   176  GLU176      0.1567
     86  C         34.0670   46.5140   52.2920 C.2   176  GLU176      0.2260
     87  O         33.9340   46.5030   51.0600 O.2   176  GLU176     -0.2867
     88  CB        34.1940   44.3450   53.5030 C.3   176  GLU176      0.0388
     89  CG        33.4910   43.3820   54.4100 C.3   176  GLU176      0.1160
     90  CD        34.4490   42.4310   55.1430 C.2   176  GLU176      0.3649
     91  OE1       35.6750   42.6920   55.1180 O.co2 176  GLU176     -0.2457
     92  OE2       33.9880   41.4360   55.7620 O.co2 176  GLU176     -0.2457
     93  N         45.0220   41.8950   63.7700 N.3   224  TYR224     -0.1241
     94  CA        45.2410   42.8070   62.6640 C.3   224  TYR224      0.1605
     95  C         44.9150   44.2420   63.0150 C.2   224  TYR224      0.2264
     96  O         45.6520   45.1540   62.6590 O.2   224  TYR224     -0.2867
     97  CB        44.4150   42.3540   61.4650 C.3   224  TYR224      0.0534
     98  CG        42.9230   42.2830   61.7130 C.ar  224  TYR224     -0.0201
     99  CD1       42.3690   41.2700   62.4800 C.ar  224  TYR224     -0.0009
    100  CD2       42.0690   43.2450   61.2030 C.ar  224  TYR224     -0.0009
    101  CE1       40.9930   41.2180   62.7220 C.ar  224  TYR224      0.0417
    102  CE2       40.7000   43.2030   61.4360 C.ar  224  TYR224      0.0417
    103  CZ        40.1640   42.1900   62.1990 C.ar  224  TYR224      0.1957
    104  OH        38.7990   42.1280   62.4100 O.3   224  TYR224     -0.2866
    105  N         26.6710   44.6730   68.0210 N.3   241  GLU241     -0.1231
    106  CA        27.4080   45.1130   66.8360 C.3   241  GLU241      0.1699
    107  C         26.6100   45.0160   65.5640 C.2   241  GLU241      0.2592
    108  O         25.9400   44.0100   65.3170 O.2   241  GLU241     -0.2718
    109  CB        28.7070   44.3440   66.6790 C.3   241  GLU241      0.0402
    110  CG        29.4850   44.7150   65.4320 C.3   241  GLU241      0.1161
    111  CD        30.9690   44.2960   65.4730 C.2   241  GLU241      0.3649
    112  OE1       31.6120   44.4770   66.5350 O.co2 241  GLU241     -0.2457
    113  OE2       31.5100   43.8090   64.4410 O.co2 241  GLU241     -0.2457
    114  N         26.6990   46.0940   64.7780 N.am  242  LEU242     -0.1966
    115  CA        26.0170   46.2690   63.4870 C.3   242  LEU242      0.1728
    116  C         27.0640   46.3750   62.3810 C.2   242  LEU242      0.2616
    117  O         27.0150   45.6550   61.3900 O.2   242  LEU242     -0.2715
    118  CB        25.1520   47.5330   63.5450 C.3   242  LEU242      0.0311
    119  CG        24.2680   48.0970   62.4220 C.3   242  LEU242      0.0022
    120  CD1       25.1220   48.6690   61.3700 C.3   242  LEU242      0.0001
    121  CD2       23.2820   47.1000   61.8300 C.3   242  LEU242      0.0001
    122  N         27.9790   47.3110   62.5200 N.am  243  GLU243     -0.1963
    123  CA        29.0360   47.4570   61.5350 C.3   243  GLU243      0.1733
    124  C         30.2740   47.5830   62.3690 C.2   243  GLU243      0.2616
    125  O         30.1600   47.9400   63.5370 O.2   243  GLU243     -0.2715
    126  CB        28.8390   48.7210   60.7070 C.3   243  GLU243      0.0429
    127  CG        29.9900   49.0480   59.7840 C.3   243  GLU243      0.1163
    128  CD        29.5260   49.5680   58.4330 C.2   243  GLU243      0.3649
    129  OE1       28.3670   50.0100   58.3270 O.co2 243  GLU243     -0.2457
    130  OE2       30.3160   49.5310   57.4570 O.co2 243  GLU243     -0.2457
    131  N         31.4480   47.3340   61.7940 N.am  244  GLY244     -0.1955
    132  CA        32.6680   47.4300   62.5710 C.3   244  GLY244      0.1869
    133  C         33.7060   48.1720   61.7900 C.2   244  GLY244      0.2309
    134  O         34.2520   47.6270   60.8330 O.2   244  GLY244     -0.2863
    135  N         43.0190   48.0790   60.7470 N.3   248  ARG248     -0.1245
    136  CA        44.1550   47.1560   60.6140 C.3   248  ARG248      0.1563
    137  C         45.2510   48.0840   60.0860 C.2   248  ARG248      0.2260
    138  O         44.9610   49.1540   59.5820 O.2   248  ARG248     -0.2867
    139  CB        43.8200   46.1130   59.5630 C.3   248  ARG248      0.0307
    140  CG        42.3670   45.7120   59.5660 C.3   248  ARG248      0.0489
    141  CD        42.1570   44.8600   58.3950 C.3   248  ARG248      0.2205
    142  NE        40.9550   44.0870   58.5200 N.pl3 248  ARG248     -0.0865
    143  CZ        40.9360   42.7760   58.3230 C.cat 248  ARG248      0.5346
    144  NH1       42.0630   42.1360   58.0260 N.pl3 248  ARG248      0.1354
    145  NH2       39.7860   42.1210   58.3280 N.pl3 248  ARG248      0.1354
    146  N         38.9230   49.8230   57.5660 N.3   296  GLU296     -0.1245
    147  CA        38.0120   48.8290   57.0210 C.3   296  GLU296      0.1567
    148  C         36.6270   48.8870   57.6330 C.2   296  GLU296      0.2260
    149  O         36.4340   48.5390   58.8040 O.2   296  GLU296     -0.2867
    150  CB        38.6170   47.4460   57.2470 C.3   296  GLU296      0.0388
    151  CG        37.6620   46.3020   57.0670 C.3   296  GLU296      0.1160
    152  CD        38.1500   45.0240   57.7390 C.2   296  GLU296      0.3649
    153  OE1       38.0740   44.9220   58.9810 O.co2 296  GLU296     -0.2457
    154  OE2       38.5860   44.1010   57.0220 O.co2 296  GLU296     -0.2457
    155  N         33.3280   47.1570   57.8780 N.3   298  SER298     -0.1202
    156  CA        32.6040   45.9230   57.5560 C.3   298  SER298      0.2020
    157  C         31.1920   45.8640   58.1180 C.2   298  SER298      0.2619
    158  O         30.9920   45.9230   59.3330 O.2   298  SER298     -0.2717
    159  CB        33.3920   44.7230   58.0440 C.3   298  SER298      0.2103
    160  OG        34.5740   44.5670   57.2800 O.3   298  SER298     -0.2182
    161  N         30.2020   45.7800   57.2470 N.am  299  ALA299     -0.1965
    162  CA        28.8400   45.7400   57.7530 C.3   299  ALA299      0.1728
    163  C         28.2800   44.4130   57.4700 C.2   299  ALA299      0.2616
    164  O         28.6980   43.7450   56.5520 O.2   299  ALA299     -0.2715
    165  CB        27.9570   46.8020   57.1090 C.3   299  ALA299      0.0334
    166  N         27.3230   44.0110   58.2670 N.am  300  GLY300     -0.1955
    167  CA        26.7150   42.7310   58.0060 C.3   300  GLY300      0.1869
    168  C         25.4540   43.0780   57.2530 C.2   300  GLY300      0.2309
    169  O         24.6610   43.9050   57.7330 O.2   300  GLY300     -0.2863
    170  N         22.9380   41.0250   56.5630 N.3   302  ASP302     -0.1225
    171  CA        21.8370   40.3940   57.2870 C.3   302  ASP302      0.1805
    172  C         21.4230   41.1380   58.5680 C.2   302  ASP302      0.2597
    173  O         20.2260   41.3250   58.8270 O.2   302  ASP302     -0.2718
    174  CB        22.1870   38.9480   57.5360 C.3   302  ASP302      0.1424
    175  CG        22.5450   38.2560   56.2580 C.2   302  ASP302      0.3668
    176  OD1       23.7050   38.4480   55.7990 O.co2 302  ASP302     -0.2456
    177  OD2       21.6460   37.6030   55.6710 O.co2 302  ASP302     -0.2456
    178  N         22.3960   41.6360   59.3220 N.am  303  ARG303     -0.1979
    179  CA        22.0780   42.3900   60.5210 C.3   303  ARG303      0.1597
    180  C         21.5160   43.7510   60.1180 C.2   303  ARG303      0.2287
    181  O         20.5860   44.2480   60.7460 O.2   303  ARG303     -0.2864
    182  CB        23.2990   42.5340   61.4280 C.3   303  ARG303      0.0334
    183  CG        23.6090   41.2800   62.2270 C.3   303  ARG303      0.0492
    184  CD        24.7140   41.5290   63.2440 C.3   303  ARG303      0.2205
    185  NE        25.4150   40.3040   63.6400 N.pl3 303  ARG303     -0.0865
    186  CZ        26.5940   40.2790   64.2560 C.cat 303  ARG303      0.5346
    187  NH1       27.2200   41.4140   64.5620 N.pl3 303  ARG303      0.1354
    188  NH2       27.1380   39.1150   64.5850 N.pl3 303  ARG303      0.1354
@<TRIPOS>BOND
     1    87    86    2
     2    13    12    2
     3    78    77    2
     4    86    85    1
     5    12    11    1
     6    84    85    1
     7    10    11    1
     8    85    88    1
     9    11    14    1
    10    77    76    1
    11    88    89    1
    12     4     3    2
    13    75    76    1
    14    67    66    2
    15     3     2    1
    16    76    79    1
    17    89    90    1
    18    66    65    1
    19    79    80    1
    20    91    90   ar
    21    90    92   ar
    22    82    81    2
    23     2     1    1
    24     2     5    1
    25    65    64    1
    26    65    68    1
    27   177   175   ar
    28   176   175   ar
    29    80    81    1
    30   175   174    1
    31    81    83   am
    32     5     6    1
    33     6     7    1
    34   164   163    2
    35   170   171    1
    36    68    69    1
    37   147   150    1
    38   147   146    1
    39   147   148    1
    40   154   152   ar
    41   151   150    1
    42   151   152    1
    43   165   162    1
    44   161   162    1
    45   161   157   am
    46   168   169    2
    47   168   167    1
    48   160   159    1
    49   171   174    1
    50   171   172    1
    51   130   128   ar
    52   163   162    1
    53   163   166   am
    54     9     7   ar
    55   156   155    1
    56   156   159    1
    57   156   157    1
    58    69    71   ar
    59    69    70   ar
    60   148   149    2
    61    71    73   ar
    62     7     8   ar
    63   152   153   ar
    64    70    72   ar
    65   167   166    1
    66   144   143    1
    67   157   158    2
    68    73    74   ar
    69    15    16    1
    70   143   145    1
    71   143   142    2
    72   129   128   ar
    73   141   142    1
    74   141   140    1
    75   128   127    1
    76    72    74   ar
    77   172   173    2
    78   172   178   am
    79   178   179    1
    80    16    17    1
    81    16    19    1
    82   139   140    1
    83   139   136    1
    84   138   137    2
    85    20    21    1
    86    20    19    1
    87   127   126    1
    88    63    61    1
    89    22    21    1
    90    22    23    2
    91   137   136    1
    92   180   179    1
    93   180   181    2
    94    25    23    1
    95    17    18    2
    96   179   182    1
    97    61    62    1
    98    61    58    1
    99   136   135    1
   100    23    24    1
   101   126   123    1
   102   134   133    2
   103    59    60    2
   104    59    58    1
   105   100   102   ar
   106   100    98   ar
   107   120   119    1
   108   117   116    2
   109   182   183    1
   110   102   103   ar
   111    97    98    1
   112    97    94    1
   113   123   124    1
   114   123   122    1
   115    98    99   ar
   116    58    57    1
   117   133   132    1
   118   131   124   am
   119   131   132    1
   120   121   119    1
   121   103   104    1
   122   103   101   ar
   123   183   184    1
   124   124   125    2
   125   116   122   am
   126   116   115    1
   127   119   118    1
   128    99   101   ar
   129    57    48   am
   130    96    95    2
   131    94    95    1
   132    94    93    1
   133    38    37    2
   134    35    36    1
   135    26    27    1
   136   184   185    1
   137   115   118    1
   138   115   114    1
   139    37    36    1
   140    37    46   am
   141    36    39    1
   142   185   186    2
   143    48    49    2
   144    48    47    1
   145    30    27    1
   146    30    31    1
   147   186   187    1
   148   186   188    1
   149    27    28    1
   150    46    47    1
   151    47    50    1
   152    33    32   ar
   153   113   111   ar
   154   114   107   am
   155    39    40    1
   156    31    32    1
   157    29    28    2
   158    32    34   ar
   159   108   107    2
   160   110   111    1
   161   110   109    1
   162   111   112   ar
   163   107   106    1
   164    40    41   ar
   165    40    42   ar
   166    50    51    1
   167    41    43   ar
   168    51    52    1
   169    42    44   ar
   170    43    45   ar
   171   109   106    1
   172    44    45   ar
   173   106   105    1
   174    52    53    1
   175    53    54    2
   176    54    55    1
   177    54    56    1
