@<TRIPOS>MOLECULE
tmp/1ghaC01.pdb
 96 94 0 0 0
SMALL
GASTEIGER

@<TRIPOS>ATOM
      1  N         40.4280   85.3620   94.8910 N.3    39  SER39      -0.1202
      2  CA        40.2580   83.9990   94.4150 C.3    39  SER39       0.2020
      3  C         39.5820   83.9100   93.0550 C.2    39  SER39       0.2619
      4  O         38.6280   84.6290   92.7990 O.2    39  SER39      -0.2717
      5  CB        39.4330   83.1800   95.4290 C.3    39  SER39       0.2103
      6  OG        39.4420   81.7980   95.1130 O.3    39  SER39      -0.2182
      7  N         40.1170   83.0600   92.1670 N.am   40  SER40      -0.1937
      8  CA        39.5020   82.8310   90.8490 C.3    40  SER40       0.2055
      9  C         38.2530   81.9970   91.1740 C.2    40  SER40       0.2643
     10  O         38.1960   81.3650   92.2270 O.2    40  SER40      -0.2714
     11  CB        40.4370   82.0690   89.9070 C.3    40  SER40       0.2130
     12  OG        41.4190   82.9350   89.3690 O.3    40  SER40      -0.2179
     13  N         37.2720   81.9580   90.2860 N.am   41  CYS41      -0.1953
     14  CA        36.0360   81.2360   90.5950 C.3    41  CYS41       0.1843
     15  C         35.3810   80.7260   89.3160 C.2    41  CYS41       0.2625
     16  O         35.9390   80.9190   88.2420 O.2    41  CYS41      -0.2714
     17  CB        35.1060   82.1920   91.3610 C.3    41  CYS41       0.0997
     18  SG        33.7940   81.4250   92.3520 S.3    41  CYS41      -0.0797
     19  N         34.2180   80.0810   89.4340 N.am   42  MET42      -0.1963
     20  CA        33.4860   79.5360   88.2680 C.3    42  MET42       0.1736
     21  C         33.2580   80.5640   87.1400 C.2    42  MET42       0.2617
     22  O         32.6480   81.6230   87.3520 O.2    42  MET42      -0.2715
     23  CB        32.1310   78.9280   88.6810 C.3    42  MET42       0.0427
     24  CG        32.2100   77.6230   89.4830 C.3    42  MET42       0.0599
     25  SD        32.9650   77.7100   91.1260 S.3    42  MET42      -0.1393
     26  CE        31.7260   78.5780   92.0120 C.3    42  MET42       0.0692
     27  N         33.7150   80.2180   85.9380 N.am   43  GLY43      -0.1955
     28  CA        33.5930   81.0830   84.7800 C.3    43  GLY43       0.1869
     29  C         34.9220   81.7220   84.4040 C.2    43  GLY43       0.2309
     30  O         35.0260   82.3500   83.3310 O.2    43  GLY43      -0.2863
     31  N         37.8200   79.8590   84.4060 N.3    45  SER45      -0.1217
     32  CA        38.5840   78.7910   83.7470 C.3    45  SER45       0.1889
     33  C         38.9520   79.0930   82.3120 C.2    45  SER45       0.2288
     34  O         38.1380   79.6280   81.5420 O.2    45  SER45      -0.2866
     35  CB        37.8150   77.4740   83.7530 C.3    45  SER45       0.2089
     36  OG        38.0570   76.7920   84.9580 O.3    45  SER45      -0.2183
     37  N         43.7360   79.4180   84.2910 N.3    63  VAL63      -0.1231
     38  CA        42.7670   79.1670   85.3760 C.3    63  VAL63       0.1692
     39  C         42.1430   77.7580   85.2360 C.2    63  VAL63       0.2593
     40  O         41.3730   77.4740   84.2990 O.2    63  VAL63      -0.2718
     41  CB        41.6590   80.2730   85.4700 C.3    63  VAL63       0.0266
     42  CG1       40.8040   80.0400   86.6930 C.3    63  VAL63       0.0020
     43  CG2       42.2720   81.6750   85.5140 C.3    63  VAL63       0.0020
     44  N         42.5640   76.8630   86.1250 N.am   64  SER64      -0.1938
     45  CA        42.1210   75.4760   86.1040 C.3    64  SER64       0.2055
     46  C         41.0170   75.1190   87.1160 C.2    64  SER64       0.2643
     47  O         39.8400   75.0600   86.7320 O.2    64  SER64      -0.2714
     48  CB        43.3370   74.5450   86.2390 C.3    64  SER64       0.2130
     49  OG        43.0580   73.2550   85.7520 O.3    64  SER64      -0.2179
     50  N         41.3700   74.8800   88.3810 N.am   65  TRP65      -0.1959
     51  CA        40.3840   74.4920   89.4030 C.3    65  TRP65       0.1771
     52  C         40.7260   75.0580   90.7630 C.2    65  TRP65       0.2620
     53  O         41.6610   75.8110   90.8950 O.2    65  TRP65      -0.2715
     54  CB        40.2700   72.9520   89.4860 C.3    65  TRP65       0.0590
     55  CG        41.5850   72.2290   89.7360 C.ar   65  TRP65       0.0006
     56  CD1       42.5570   71.9270   88.8070 C.ar   65  TRP65       0.0946
     57  CD2       42.0780   71.7410   90.9930 C.ar   65  TRP65       0.0152
     58  NE1       43.6110   71.2920   89.4080 N.ar   65  TRP65      -0.2442
     59  CE2       43.3470   71.1640   90.7500 C.ar   65  TRP65       0.0810
     60  CE3       41.5660   71.7390   92.3050 C.ar   65  TRP65       0.0012
     61  CZ2       44.1210   70.5810   91.7750 C.ar   65  TRP65       0.0191
     62  CZ3       42.3380   71.1650   93.3240 C.ar   65  TRP65       0.0001
     63  CH2       43.6050   70.5940   93.0460 C.ar   65  TRP65       0.0015
     64  N         39.9640   74.6860   91.7760 N.am   66  GLY66      -0.1940
     65  CA        40.2330   75.1640   93.1180 C.3    66  GLY66       0.2014
     66  C         39.0900   74.8520   94.0520 C.2    66  GLY66       0.2640
     67  O         38.3380   73.9060   93.8240 O.2    66  GLY66      -0.2714
     68  N         38.9820   75.6400   95.1130 N.am   67  SER67      -0.1935
     69  CA        37.9360   75.5290   96.1400 C.3    67  SER67       0.2055
     70  C         36.5490   75.6710   95.4750 C.2    67  SER67       0.2643
     71  O         36.3650   76.5510   94.6170 O.2    67  SER67      -0.2714
     72  CB        38.1610   76.6500   97.1640 C.3    67  SER67       0.2130
     73  OG        37.1560   76.7340   98.1520 O.3    67  SER67      -0.2179
     74  N         35.5900   74.8060   95.8530 N.am   68  SER68      -0.1949
     75  CA        34.2360   74.8460   95.2690 C.3    68  SER68       0.1924
     76  C         33.4320   76.0900   95.7120 C.2    68  SER68       0.2314
     77  O         32.4460   76.4760   95.0900 O.2    68  SER68      -0.2863
     78  CB        33.4660   73.5440   95.5830 C.3    68  SER68       0.2116
     79  OG        32.9720   73.4760   96.9220 O.3    68  SER68      -0.2180
     80  N         35.2300   78.9520   96.3260 N.3    70  CYS70      -0.1235
     81  CA        36.0890   80.0290   95.8430 C.3    70  CYS70       0.1677
     82  C         36.6260   80.7980   97.0320 C.2    70  CYS70       0.2270
     83  O         36.6690   82.0170   97.0540 O.2    70  CYS70      -0.2867
     84  CB        35.3460   80.9420   94.8890 C.3    70  CYS70       0.0956
     85  SG        34.7150   80.0090   93.4700 S.3    70  CYS70      -0.0801
     86  N         44.1860   78.8450   94.4700 N.3    76  GLY76      -0.1210
     87  CA        43.5700   78.3720   93.2400 C.3    76  GLY76       0.1956
     88  C         44.6040   77.5500   92.4690 C.2    76  GLY76       0.2611
     89  O         45.8240   77.6500   92.7060 O.2    76  GLY76      -0.2717
     90  N         44.1370   76.6940   91.5650 N.am   77  VAL77      -0.1979
     91  CA        45.0600   75.8700   90.7880 C.3    77  VAL77       0.1595
     92  C         44.9630   76.2220   89.3120 C.2    77  VAL77       0.2287
     93  O         43.8710   76.3400   88.7600 O.2    77  VAL77      -0.2864
     94  CB        44.8340   74.3640   91.0300 C.3    77  VAL77       0.0276
     95  CG1       45.9980   73.5560   90.4420 C.3    77  VAL77       0.0022
     96  CG2       44.6840   74.1080   92.5160 C.3    77  VAL77       0.0022
@<TRIPOS>BOND
     1    34    33    2
     2    33    32    1
     3    30    29    2
     4    32    35    1
     5    32    31    1
     6    35    36    1
     7    37    38    1
     8    40    39    2
     9    29    28    1
    10    28    27    1
    11    39    38    1
    12    39    44   am
    13    38    41    1
    14    41    43    1
    15    41    42    1
    16    49    48    1
    17    27    21   am
    18    45    44    1
    19    45    48    1
    20    45    46    1
    21    47    46    2
    22    46    50   am
    23    21    22    2
    24    21    20    1
    25    16    15    2
    26    20    23    1
    27    20    19    1
    28    50    51    1
    29    23    24    1
    30    93    92    2
    31    56    58   ar
    32    56    55   ar
    33    92    91    1
    34    15    19   am
    35    15    14    1
    36    12    11    1
    37    51    54    1
    38    51    52    1
    39    58    59   ar
    40    24    25    1
    41    54    55    1
    42    55    57   ar
    43    11     8    1
    44    13    14    1
    45    13     9   am
    46    95    94    1
    47    14    17    1
    48    59    57   ar
    49    59    61   ar
    50    52    53    2
    51    52    64   am
    52    91    94    1
    53    91    90    1
    54     8     9    1
    55     8     7    1
    56    57    60   ar
    57    94    96    1
    58    25    26    1
    59     9    10    2
    60    17    18    1
    61    90    88   am
    62    61    63   ar
    63    64    65    1
    64     7     3   am
    65    60    62   ar
    66    18    85    1
    67    88    89    2
    68    88    87    1
    69     4     3    2
    70    63    62   ar
    71     3     2    1
    72    65    66    1
    73    87    86    1
    74    85    84    1
    75    67    66    2
    76    66    68   am
    77     2     1    1
    78     2     5    1
    79    71    70    2
    80    84    81    1
    81    77    76    2
    82    68    69    1
    83     6     5    1
    84    75    78    1
    85    75    76    1
    86    75    74    1
    87    70    74   am
    88    70    69    1
    89    78    79    1
    90    81    80    1
    91    81    82    1
    92    69    72    1
    93    82    83    2
    94    72    73    1
