@<TRIPOS>MOLECULE
tmp/1ghbC02.pdb
 118 118 0 0 0
SMALL
GASTEIGER

@<TRIPOS>ATOM
      1  N         40.3930   85.2620   94.8880 N.3    39  SER39      -0.1202
      2  CA        40.2290   83.8910   94.3990 C.3    39  SER39       0.2020
      3  C         39.5720   83.9000   93.0160 C.2    39  SER39       0.2619
      4  O         38.7320   84.7710   92.7310 O.2    39  SER39      -0.2717
      5  CB        39.3620   83.0670   95.3920 C.3    39  SER39       0.2103
      6  OG        39.1260   81.7140   94.9700 O.3    39  SER39      -0.2182
      7  N         40.0780   83.0430   92.1190 N.am   40  SER40      -0.1937
      8  CA        39.4520   82.9060   90.8060 C.3    40  SER40       0.2055
      9  C         38.2230   82.0180   91.0860 C.2    40  SER40       0.2643
     10  O         38.1900   81.2740   92.0740 O.2    40  SER40      -0.2714
     11  CB        40.4020   82.2920   89.7650 C.3    40  SER40       0.2130
     12  OG        41.3270   83.2590   89.2990 O.3    40  SER40      -0.2179
     13  N         37.2130   82.0930   90.2370 N.am   41  CYS41      -0.1953
     14  CA        35.9890   81.3670   90.5060 C.3    41  CYS41       0.1843
     15  C         35.3530   80.8420   89.2330 C.2    41  CYS41       0.2625
     16  O         35.8660   81.0820   88.1350 O.2    41  CYS41      -0.2714
     17  CB        35.0360   82.3110   91.2430 C.3    41  CYS41       0.0997
     18  SG        33.7110   81.5530   92.2330 S.3    41  CYS41      -0.0797
     19  N         34.2470   80.1150   89.3790 N.am   42  MET42      -0.1977
     20  CA        33.5360   79.5390   88.2360 C.3    42  MET42       0.1605
     21  C         33.3040   80.5930   87.1570 C.2    42  MET42       0.2287
     22  O         32.7750   81.6620   87.4310 O.2    42  MET42      -0.2864
     23  CB        32.1830   78.9550   88.6680 C.3    42  MET42       0.0413
     24  CG        32.2100   77.6190   89.4110 C.3    42  MET42       0.0598
     25  SD        32.8000   77.6010   91.1070 S.3    42  MET42      -0.1393
     26  CE        31.6410   78.5900   91.8800 C.3    42  MET42       0.0692
     27  N         37.5950   80.0470   84.5240 N.3    45  SER45      -0.1217
     28  CA        38.3040   78.9180   83.9150 C.3    45  SER45       0.1889
     29  C         38.7490   79.2030   82.4940 C.2    45  SER45       0.2288
     30  O         38.0410   79.9070   81.7580 O.2    45  SER45      -0.2866
     31  CB        37.4390   77.6400   83.9290 C.3    45  SER45       0.2089
     32  OG        37.4870   77.0040   85.1970 O.3    45  SER45      -0.2183
     33  N         43.5210   79.3550   84.3750 N.3    63  VAL63      -0.1231
     34  CA        42.5260   79.1330   85.4360 C.3    63  VAL63       0.1692
     35  C         41.9230   77.7290   85.2620 C.2    63  VAL63       0.2593
     36  O         41.2620   77.4340   84.2640 O.2    63  VAL63      -0.2718
     37  CB        41.4300   80.2400   85.4240 C.3    63  VAL63       0.0266
     38  CG1       40.5690   80.1710   86.6510 C.3    63  VAL63       0.0020
     39  CG2       42.0610   81.6070   85.3250 C.3    63  VAL63       0.0020
     40  N         42.2400   76.8490   86.2010 N.am   64  SER64      -0.1938
     41  CA        41.7790   75.4790   86.1350 C.3    64  SER64       0.2055
     42  C         40.7320   75.1240   87.1930 C.2    64  SER64       0.2643
     43  O         39.5310   74.9910   86.8500 O.2    64  SER64      -0.2714
     44  CB        42.9760   74.5420   86.2020 C.3    64  SER64       0.2130
     45  OG        42.6030   73.1940   86.0360 O.3    64  SER64      -0.2179
     46  N         41.1680   75.0100   88.4570 N.am   65  TRP65      -0.1959
     47  CA        40.2710   74.6300   89.5450 C.3    65  TRP65       0.1771
     48  C         40.6960   75.1120   90.9280 C.2    65  TRP65       0.2620
     49  O         41.7530   75.6950   91.0910 O.2    65  TRP65      -0.2715
     50  CB        40.1280   73.0940   89.5850 C.3    65  TRP65       0.0590
     51  CG        41.4420   72.3530   89.8170 C.ar   65  TRP65       0.0006
     52  CD1       42.3430   71.9650   88.8640 C.ar   65  TRP65       0.0946
     53  CD2       41.9290   71.8300   91.0660 C.ar   65  TRP65       0.0152
     54  NE1       43.3400   71.2140   89.4360 N.ar   65  TRP65      -0.2442
     55  CE2       43.1200   71.1170   90.7840 C.ar   65  TRP65       0.0810
     56  CE3       41.4820   71.8850   92.4000 C.ar   65  TRP65       0.0012
     57  CZ2       43.8540   70.4640   91.7800 C.ar   65  TRP65       0.0191
     58  CZ3       42.2080   71.2400   93.3800 C.ar   65  TRP65       0.0001
     59  CH2       43.3820   70.5400   93.0660 C.ar   65  TRP65       0.0015
     60  N         39.8600   74.8330   91.9210 N.am   66  GLY66      -0.1940
     61  CA        40.1620   75.2160   93.2860 C.3    66  GLY66       0.2014
     62  C         39.0270   74.8590   94.2480 C.2    66  GLY66       0.2640
     63  O         38.3890   73.8120   94.1480 O.2    66  GLY66      -0.2714
     64  N         38.8130   75.7580   95.2010 N.am   67  SER67      -0.1935
     65  CA        37.7780   75.6420   96.2220 C.3    67  SER67       0.2055
     66  C         36.3530   75.7050   95.6020 C.2    67  SER67       0.2643
     67  O         36.0780   76.5630   94.7630 O.2    67  SER67      -0.2714
     68  CB        38.0110   76.7810   97.2370 C.3    67  SER67       0.2130
     69  OG        36.8880   77.0390   98.0640 O.3    67  SER67      -0.2179
     70  N         35.4510   74.8120   96.0200 N.am   68  SER68      -0.1949
     71  CA        34.0860   74.8020   95.4880 C.3    68  SER68       0.1924
     72  C         33.3330   76.1070   95.8550 C.2    68  SER68       0.2314
     73  O         32.4290   76.5540   95.1500 O.2    68  SER68      -0.2863
     74  CB        33.3320   73.5600   95.9970 C.3    68  SER68       0.2116
     75  OG        33.1420   73.6070   97.3920 O.3    68  SER68      -0.2180
     76  N         35.0870   78.9900   96.2130 N.3    70  CYS70      -0.1235
     77  CA        35.9790   80.0680   95.7810 C.3    70  CYS70       0.1677
     78  C         36.6030   80.7970   96.9760 C.2    70  CYS70       0.2270
     79  O         36.7510   82.0140   96.9750 O.2    70  CYS70      -0.2867
     80  CB        35.2390   81.0240   94.8570 C.3    70  CYS70       0.0956
     81  SG        34.6680   80.1570   93.3560 S.3    70  CYS70      -0.0801
     82  N         42.0200   79.8910  100.4510 N.3    74  THR74      -0.1204
     83  CA        42.4630   78.6570   99.8040 C.3    74  THR74       0.1979
     84  C         43.0170   78.9890   98.4120 C.2    74  THR74       0.2460
     85  O         42.3840   79.7340   97.6410 O.2    74  THR74      -0.2732
     86  CB        41.2860   77.6500   99.6930 C.3    74  THR74       0.1783
     87  OG1       40.7630   77.3810  101.0080 O.3    74  THR74      -0.2211
     88  CG2       41.7400   76.3600   99.0750 C.3    74  THR74       0.0376
     89  N         44.2260   78.4830   98.0910 N.am   75  PRO75      -0.2717
     90  CA        44.8760   78.7260   96.7960 C.3    75  PRO75       0.1536
     91  C         44.1870   78.0940   95.6020 C.2    75  PRO75       0.2599
     92  O         43.6540   76.9840   95.6850 O.2    75  PRO75      -0.2715
     93  CB        46.2900   78.1670   97.0130 C.3    75  PRO75       0.0310
     94  CG        46.1000   77.1260   98.0350 C.3    75  PRO75       0.0237
     95  CD        45.1250   77.7490   98.9920 C.3    75  PRO75       0.0939
     96  N         44.1290   78.8610   94.5220 N.am   76  GLY76      -0.1941
     97  CA        43.5250   78.3980   93.2900 C.3    76  GLY76       0.2014
     98  C         44.5440   77.5820   92.5340 C.2    76  GLY76       0.2639
     99  O         45.7500   77.6840   92.8170 O.2    76  GLY76      -0.2714
    100  N         44.0750   76.7520   91.6010 N.am   77  VAL77      -0.1963
    101  CA        44.9770   75.9210   90.8150 C.3    77  VAL77       0.1727
    102  C         44.8490   76.2300   89.3350 C.2    77  VAL77       0.2616
    103  O         43.7590   76.2020   88.7690 O.2    77  VAL77      -0.2715
    104  CB        44.8010   74.4120   91.0840 C.3    77  VAL77       0.0290
    105  CG1       45.7740   73.6060   90.2480 C.3    77  VAL77       0.0023
    106  CG2       44.9930   74.1400   92.5680 C.3    77  VAL77       0.0023
    107  N         45.9980   76.5240   88.7350 N.am   78  TYR78      -0.1974
    108  CA        46.1310   76.9060   87.3430 C.3    78  TYR78       0.1639
    109  C         47.0590   75.9130   86.6390 C.2    78  TYR78       0.2290
    110  O         47.9500   75.3440   87.2750 O.2    78  TYR78      -0.2864
    111  CB        46.7980   78.2990   87.2720 C.3    78  TYR78       0.0560
    112  CG        46.1200   79.4020   88.0610 C.ar   78  TYR78      -0.0198
    113  CD1       46.2950   79.5080   89.4410 C.ar   78  TYR78      -0.0009
    114  CD2       45.2900   80.3260   87.4260 C.ar   78  TYR78      -0.0009
    115  CE1       45.6530   80.5090   90.1780 C.ar   78  TYR78       0.0417
    116  CE2       44.6430   81.3340   88.1560 C.ar   78  TYR78       0.0417
    117  CZ        44.8250   81.4120   89.5280 C.ar   78  TYR78       0.1957
    118  OH        44.1610   82.3560   90.2640 O.3    78  TYR78      -0.2866
@<TRIPOS>BOND
     1    30    29    2
     2    29    28    1
     3    28    31    1
     4    28    27    1
     5    31    32    1
     6    36    35    2
     7    33    34    1
     8    35    34    1
     9    35    40   am
    10    39    37    1
    11    37    34    1
    12    37    38    1
    13    45    44    1
    14    41    40    1
    15    41    44    1
    16    41    42    1
    17   109   110    2
    18   109   108    1
    19    43    42    2
    20    21    22    2
    21    21    20    1
    22    42    46   am
    23   111   108    1
    24   111   112    1
    25   108   107    1
    26   114   112   ar
    27   114   116   ar
    28   112   113   ar
    29    16    15    2
    30   116   117   ar
    31    20    23    1
    32    20    19    1
    33    46    47    1
    34    23    24    1
    35   107   102   am
    36   103   102    2
    37    52    54   ar
    38    52    51   ar
    39    15    19   am
    40    15    14    1
    41    12    11    1
    42   102   101    1
    43    24    25    1
    44    54    55   ar
    45   113   115   ar
    46   117   115   ar
    47   117   118    1
    48    47    50    1
    49    47    48    1
    50    50    51    1
    51    11     8    1
    52    51    53   ar
    53    13    14    1
    54    13     9   am
    55   105   104    1
    56    14    17    1
    57    55    53   ar
    58    55    57   ar
    59     8     9    1
    60     8     7    1
    61   101   104    1
    62   101   100    1
    63    48    49    2
    64    48    60   am
    65    53    56   ar
    66   104   106    1
    67     9    10    2
    68    25    26    1
    69    17    18    1
    70   100    98   am
    71    57    59   ar
    72    60    61    1
    73     7     3   am
    74    18    81    1
    75    56    58   ar
    76    98    99    2
    77    98    97    1
    78     4     3    2
    79     3     2    1
    80    59    58   ar
    81    61    62    1
    82    97    96    1
    83    81    80    1
    84    63    62    2
    85    62    64   am
    86     2     1    1
    87     2     5    1
    88    96    91   am
    89    67    66    2
    90    80    77    1
    91     6     5    1
    92    73    72    2
    93    64    65    1
    94    71    72    1
    95    71    74    1
    96    71    70    1
    97    66    70   am
    98    66    65    1
    99    91    92    2
   100    91    90    1
   101    77    76    1
   102    77    78    1
   103    74    75    1
   104    65    68    1
   105    90    93    1
   106    90    89    1
   107    79    78    2
   108    93    94    1
   109    68    69    1
   110    85    84    2
   111    94    95    1
   112    89    84   am
   113    89    95    1
   114    84    83    1
   115    88    86    1
   116    86    83    1
   117    86    87    1
   118    83    82    1
