@<TRIPOS>MOLECULE
tmp/1gheB00.pdb
 209 202 0 0 0
SMALL
GASTEIGER

@<TRIPOS>ATOM
      1  N         10.0580    4.5100   14.7210 N.3    26  THR26      -0.1218
      2  CA         8.9390    4.0520   13.8900 C.3    26  THR26       0.1862
      3  C          7.8160    5.0890   13.8370 C.2    26  THR26       0.2287
      4  O          7.2570    5.3720   12.7620 O.2    26  THR26      -0.2866
      5  CB         8.4190    2.6990   14.4080 C.3    26  THR26       0.1770
      6  OG1        9.4780    1.7400   14.3080 O.3    26  THR26      -0.2211
      7  CG2        7.2290    2.2140   13.5740 C.3    26  THR26       0.0375
      8  N          4.7930    5.9390   10.8730 N.3    31  ALA31      -0.1231
      9  CA         3.8850    4.8180   11.0250 C.3    31  ALA31       0.1694
     10  C          2.8490    5.0240   12.1180 C.2    31  ALA31       0.2593
     11  O          3.1040    5.6920   13.1150 O.2    31  ALA31      -0.2718
     12  CB         4.6670    3.5560   11.3110 C.3    31  ALA31       0.0304
     13  N          1.6690    4.4360   11.9190 N.am   32  SER32      -0.1938
     14  CA         0.5950    4.4980   12.9070 C.3    32  SER32       0.2055
     15  C          0.7100    3.2610   13.7960 C.2    32  SER32       0.2642
     16  O          0.2440    2.1800   13.4330 O.2    32  SER32      -0.2714
     17  CB        -0.7870    4.5100   12.2290 C.3    32  SER32       0.2130
     18  OG        -1.0590    5.7940   11.6810 O.3    32  SER32      -0.2179
     19  N          1.3470    3.4150   14.9500 N.am   33  VAL33      -0.1977
     20  CA         1.5080    2.3060   15.8750 C.3    33  VAL33       0.1596
     21  C          1.0620    2.6820   17.2830 C.2    33  VAL33       0.2287
     22  O          1.6690    2.2700   18.2700 O.2    33  VAL33      -0.2864
     23  CB         2.9690    1.7940   15.8860 C.3    33  VAL33       0.0276
     24  CG1        3.2830    1.0820   14.5730 C.3    33  VAL33       0.0022
     25  CG2        3.9200    2.9580   16.0450 C.3    33  VAL33       0.0022
     26  N         -3.7110  -11.8640   19.3340 N.3    88  GLU88      -0.1231
     27  CA        -3.5630  -10.7110   18.4610 C.3    88  GLU88       0.1699
     28  C         -2.0970  -10.3430   18.2490 C.2    88  GLU88       0.2592
     29  O         -1.3170  -10.2190   19.1920 O.2    88  GLU88      -0.2718
     30  CB        -4.2880   -9.5010   19.0290 C.3    88  GLU88       0.0402
     31  CG        -4.1850   -8.2810   18.1410 C.3    88  GLU88       0.1161
     32  CD        -4.9410   -7.0920   18.6870 C.2    88  GLU88       0.3649
     33  OE1       -5.5660   -7.2210   19.7650 O.co2  88  GLU88      -0.2457
     34  OE2       -4.9110   -6.0240   18.0270 O.co2  88  GLU88      -0.2457
     35  N         -1.7380  -10.1320   16.9940 N.am   89  VAL89      -0.1966
     36  CA        -0.3740   -9.7310   16.6640 C.3    89  VAL89       0.1727
     37  C         -0.3440   -8.2180   16.7450 C.2    89  VAL89       0.2616
     38  O         -1.2340   -7.5510   16.2060 O.2    89  VAL89      -0.2715
     39  CB        -0.0200  -10.0960   15.2330 C.3    89  VAL89       0.0290
     40  CG1        1.3580   -9.5290   14.8880 C.3    89  VAL89       0.0023
     41  CG2       -0.0480  -11.5990   15.0610 C.3    89  VAL89       0.0023
     42  N          0.6650   -7.6550   17.4060 N.am   90  GLN90      -0.1963
     43  CA         0.7150   -6.2080   17.4570 C.3    90  GLN90       0.1733
     44  C          2.1420   -5.7090   17.5300 C.2    90  GLN90       0.2616
     45  O          3.0920   -6.4670   17.8030 O.2    90  GLN90      -0.2715
     46  CB        -0.0890   -5.7090   18.6560 C.3    90  GLN90       0.0408
     47  CG         0.4700   -6.2060   19.9780 C.3    90  GLN90       0.0908
     48  CD        -0.4850   -6.0380   21.1600 C.2    90  GLN90       0.2608
     49  OE1       -0.0400   -5.9350   22.3020 O.2    90  GLN90      -0.2717
     50  NE2       -1.7910   -6.0320   20.8960 N.am   90  GLN90      -0.0878
     51  N          2.2980   -4.4270   17.2580 N.am   91  LYS91      -0.1963
     52  CA         3.5930   -3.7930   17.3500 C.3    91  LYS91       0.1728
     53  C          4.7440   -4.4480   16.5920 C.2    91  LYS91       0.2616
     54  O          5.8820   -4.5320   17.1050 O.2    91  LYS91      -0.2715
     55  CB         3.9600   -3.6360   18.8190 C.3    91  LYS91       0.0311
     56  CG         3.0590   -2.6610   19.5530 C.3    91  LYS91       0.0038
     57  CD         3.3360   -1.2230   19.1070 C.3    91  LYS91       0.0206
     58  CE         2.5290   -0.2180   19.9110 C.3    91  LYS91       0.1093
     59  NZ         1.0580   -0.3710   19.6850 N.3    91  LYS91      -0.1314
     60  N          4.4670   -4.9330   15.3790 N.am   92  LEU92      -0.1977
     61  CA         5.5480   -5.4910   14.5710 C.3    92  LEU92       0.1596
     62  C          6.2180   -4.2380   13.9860 C.2    92  LEU92       0.2287
     63  O          5.5760   -3.4520   13.2790 O.2    92  LEU92      -0.2864
     64  CB         4.9900   -6.3730   13.4510 C.3    92  LEU92       0.0297
     65  CG         6.0280   -6.6590   12.3720 C.3    92  LEU92       0.0022
     66  CD1        7.0990   -7.5830   12.9290 C.3    92  LEU92       0.0001
     67  CD2        5.3270   -7.2600   11.1580 C.3    92  LEU92       0.0001
     68  N         10.1310   -2.5760   12.4680 N.3    93  VAL93      -0.1245
     69  CA        11.5160   -2.7770   12.0370 C.3    93  VAL93       0.1561
     70  C         12.1020   -1.3730   11.8360 C.2    93  VAL93       0.2260
     71  O         11.4700   -0.5300   11.2000 O.2    93  VAL93      -0.2867
     72  CB        11.5550   -3.5650   10.6970 C.3    93  VAL93       0.0252
     73  CG1       12.9870   -3.7190   10.1920 C.3    93  VAL93       0.0019
     74  CG2       10.9100   -4.9430   10.8940 C.3    93  VAL93       0.0019
     75  N         14.8530   -2.2090    7.2760 N.3    98  ARG98      -0.1231
     76  CA        13.7570   -2.8110    6.5120 C.3    98  ARG98       0.1694
     77  C         14.1820   -3.4580    5.1950 C.2    98  ARG98       0.2593
     78  O         15.2630   -3.1660    4.6460 O.2    98  ARG98      -0.2718
     79  CB        12.6890   -1.7590    6.2490 C.3    98  ARG98       0.0321
     80  CG        12.0120   -1.3100    7.5310 C.3    98  ARG98       0.0489
     81  CD        11.0800   -0.1330    7.3770 C.3    98  ARG98       0.2205
     82  NE        10.6620    0.3250    8.7050 N.pl3  98  ARG98      -0.0865
     83  CZ         9.9850    1.4440    8.9390 C.cat  98  ARG98       0.5346
     84  NH1        9.6370    2.2390    7.9340 N.pl3  98  ARG98       0.1354
     85  NH2        9.6590    1.7800   10.1830 N.pl3  98  ARG98       0.1354
     86  N         13.3370   -4.3500    4.6960 N.am   99  GLY99      -0.1942
     87  CA        13.6300   -5.0240    3.4500 C.3    99  GLY99       0.2014
     88  C         14.7480   -6.0520    3.5000 C.2    99  GLY99       0.2639
     89  O         15.3100   -6.4070    2.4550 O.2    99  GLY99      -0.2714
     90  N         15.0530   -6.5420    4.6990 N.am  100  ARG100     -0.1963
     91  CA        16.1060   -7.5270    4.9150 C.3   100  ARG100      0.1729
     92  C         15.5500   -8.8720    5.3670 C.2   100  ARG100      0.2617
     93  O         16.3160   -9.7840    5.6820 O.2   100  ARG100     -0.2715
     94  CB        17.0810   -7.0270    5.9820 C.3   100  ARG100      0.0348
     95  CG        17.9170   -5.8180    5.5980 C.3   100  ARG100      0.0492
     96  CD        18.7340   -5.3290    6.8120 C.3   100  ARG100      0.2205
     97  NE        19.1790   -6.4270    7.6820 N.pl3 100  ARG100     -0.0865
     98  CZ        19.9010   -6.2690    8.7960 C.cat 100  ARG100      0.5346
     99  NH1       20.2750   -5.0550    9.1830 N.pl3 100  ARG100      0.1354
    100  NH2       20.2310   -7.3250    9.5390 N.pl3 100  ARG100      0.1354
    101  N         14.2260   -8.9720    5.4530 N.am  101  GLY101     -0.1940
    102  CA        13.6050  -10.2160    5.8680 C.3   101  GLY101      0.2014
    103  C         13.3560  -10.3130    7.3670 C.2   101  GLY101      0.2639
    104  O         12.9210  -11.3640    7.8370 O.2   101  GLY101     -0.2714
    105  N         13.6180   -9.2440    8.1220 N.am  102  LEU102     -0.1963
    106  CA        13.4450   -9.3060    9.5820 C.3   102  LEU102      0.1728
    107  C         11.9920   -9.4480    9.9820 C.2   102  LEU102      0.2617
    108  O         11.6770  -10.1810   10.9080 O.2   102  LEU102     -0.2715
    109  CB        14.0150   -8.0660   10.2810 C.3   102  LEU102      0.0311
    110  CG        15.5250   -7.8950   10.0680 C.3   102  LEU102      0.0022
    111  CD1       16.0560   -6.7160   10.9200 C.3   102  LEU102      0.0001
    112  CD2       16.2180   -9.2030   10.4560 C.3   102  LEU102      0.0001
    113  N         11.1020   -8.7330    9.3080 N.am  103  GLY103     -0.1940
    114  CA         9.6910   -8.8160    9.6550 C.3   103  GLY103      0.2014
    115  C          9.1940  -10.2260    9.4020 C.2   103  GLY103      0.2638
    116  O          8.4600  -10.8050   10.2280 O.2   103  GLY103     -0.2714
    117  N          9.5570  -10.7840    8.2520 N.am  104  ARG104     -0.1977
    118  CA         9.1390  -12.1480    7.9470 C.3   104  ARG104      0.1597
    119  C          9.7060  -13.1720    8.9710 C.2   104  ARG104      0.2287
    120  O          9.0270  -14.1130    9.3890 O.2   104  ARG104     -0.2864
    121  CB         9.5660  -12.5130    6.5080 C.3   104  ARG104      0.0334
    122  CG         9.0110  -13.8590    6.0320 C.3   104  ARG104      0.0492
    123  CD         9.5550  -14.2240    4.6380 C.3   104  ARG104      0.2205
    124  NE         8.9910  -13.4490    3.5350 N.pl3 104  ARG104     -0.0865
    125  CZ         7.8640  -13.7580    2.9040 C.cat 104  ARG104      0.5346
    126  NH1        7.1620  -14.8170    3.2730 N.pl3 104  ARG104      0.1354
    127  NH2        7.4630  -13.0370    1.8650 N.pl3 104  ARG104      0.1354
    128  N         -5.1040   -9.1650   13.5320 N.3   123  LEU123     -0.1231
    129  CA        -4.4380   -7.9000   13.7710 C.3   123  LEU123      0.1693
    130  C         -5.1070   -6.8380   12.9330 C.2   123  LEU123      0.2592
    131  O         -5.9790   -7.1250   12.1080 O.2   123  LEU123     -0.2718
    132  CB        -2.9800   -8.0220   13.3330 C.3   123  LEU123      0.0284
    133  CG        -2.8010   -8.4650   11.8600 C.3   123  LEU123      0.0019
    134  CD1       -2.6730   -7.2590   10.9250 C.3   123  LEU123      0.0001
    135  CD2       -1.5490   -9.2960   11.7480 C.3   123  LEU123      0.0001
    136  N         -4.6970   -5.5980   13.1520 N.am  124  ASP124     -0.1960
    137  CA        -5.2110   -4.5260   12.3050 C.3   124  ASP124      0.1840
    138  C         -4.0310   -3.6040   12.0880 C.2   124  ASP124      0.2622
    139  O         -3.1680   -3.4660   12.9740 O.2   124  ASP124     -0.2715
    140  CB        -6.3820   -3.7910   12.9440 C.3   124  ASP124      0.1450
    141  CG        -5.9680   -2.9500   14.1020 C.2   124  ASP124      0.3671
    142  OD1       -5.9210   -3.4860   15.2280 O.co2 124  ASP124     -0.2456
    143  OD2       -5.6770   -1.7520   13.8840 O.co2 124  ASP124     -0.2456
    144  N         -3.9810   -2.9940   10.9080 N.am  125  THR125     -0.1951
    145  CA        -2.8950   -2.1040   10.5430 C.3   125  THR125      0.1897
    146  C         -3.4530   -0.9710    9.6840 C.2   125  THR125      0.2313
    147  O         -4.4620   -1.1530    9.0050 O.2   125  THR125     -0.2863
    148  CB        -1.8130   -2.8920    9.7600 C.3   125  THR125      0.1794
    149  OG1       -0.6390   -2.0950    9.6250 O.3   125  THR125     -0.2208
    150  CG2       -2.3160   -3.3120    8.3910 C.3   125  THR125      0.0378
    151  N         -0.9530    1.2070    4.2430 N.3   129  SER129     -0.1202
    152  CA         0.4410    1.2180    4.6600 C.3   129  SER129      0.2020
    153  C          1.2030    0.0480    4.0490 C.2   129  SER129      0.2619
    154  O          0.5990   -0.8850    3.5270 O.2   129  SER129     -0.2717
    155  CB         0.5350    1.1410    6.1890 C.3   129  SER129      0.2103
    156  OG        -0.0050   -0.0810    6.6600 O.3   129  SER129     -0.2182
    157  N          2.5330    0.1050    4.1150 N.am  130  VAL130     -0.1965
    158  CA         3.3390   -0.9950    3.6150 C.3   130  VAL130      0.1727
    159  C          2.9910   -2.2770    4.3390 C.2   130  VAL130      0.2616
    160  O          3.0630   -3.3720    3.7550 O.2   130  VAL130     -0.2715
    161  CB         4.8530   -0.7020    3.8030 C.3   130  VAL130      0.0290
    162  CG1        5.6870   -1.9660    3.5480 C.3   130  VAL130      0.0023
    163  CG2        5.2560    0.3950    2.8400 C.3   130  VAL130      0.0023
    164  N          2.5920   -2.1470    5.6090 N.am  131  ALA131     -0.1977
    165  CA         2.2540   -3.3300    6.3960 C.3   131  ALA131      0.1597
    166  C          1.1460   -4.1450    5.7120 C.2   131  ALA131      0.2287
    167  O          1.0940   -5.3770    5.8710 O.2   131  ALA131     -0.2864
    168  CB         1.8450   -2.9220    7.8170 C.3   131  ALA131      0.0319
    169  N          0.7830   -4.7260    2.4800 N.3   133  ALA133     -0.1231
    170  CA         1.3920   -5.6130    1.4880 C.3   133  ALA133      0.1694
    171  C          2.1820   -6.7000    2.1970 C.2   133  ALA133      0.2592
    172  O          2.2020   -7.8360    1.7480 O.2   133  ALA133     -0.2718
    173  CB         2.2800   -4.8300    0.5530 C.3   133  ALA133      0.0304
    174  N          2.8320   -6.3430    3.3040 N.am  134  PHE134     -0.1962
    175  CA         3.5960   -7.3080    4.1010 C.3   134  PHE134      0.1771
    176  C          2.7220   -8.4430    4.6380 C.2   134  PHE134      0.2619
    177  O          3.0330   -9.6280    4.4450 O.2   134  PHE134     -0.2715
    178  CB         4.2650   -6.5750    5.2790 C.3   134  PHE134      0.0574
    179  CG         4.8990   -7.4820    6.2740 C.ar  134  PHE134     -0.0200
    180  CD1        6.1940   -7.9500    6.1040 C.ar  134  PHE134     -0.0042
    181  CD2        4.2050   -7.8480    7.4160 C.ar  134  PHE134     -0.0042
    182  CE1        6.7830   -8.7690    7.0700 C.ar  134  PHE134     -0.0003
    183  CE2        4.7860   -8.6660    8.3790 C.ar  134  PHE134     -0.0003
    184  CZ         6.0770   -9.1250    8.2080 C.ar  134  PHE134     -0.0000
    185  N          1.6300   -8.1210    5.3330 N.am  135  TYR135     -0.1974
    186  CA         0.8160   -9.2090    5.8470 C.3   135  TYR135      0.1639
    187  C          0.1600   -9.9930    4.7220 C.2   135  TYR135      0.2290
    188  O          0.0010  -11.2190    4.8300 O.2   135  TYR135     -0.2864
    189  CB        -0.2340   -8.7010    6.8350 C.3   135  TYR135      0.0560
    190  CG         0.3800   -8.2300    8.1390 C.ar  135  TYR135     -0.0198
    191  CD1        0.3190   -6.9020    8.4970 C.ar  135  TYR135     -0.0009
    192  CD2        1.0200   -9.1270    8.9930 C.ar  135  TYR135     -0.0009
    193  CE1        0.8820   -6.4550    9.6890 C.ar  135  TYR135      0.0417
    194  CE2        1.5980   -8.6830   10.2010 C.ar  135  TYR135      0.0417
    195  CZ         1.5080   -7.3450   10.5180 C.ar  135  TYR135      0.1957
    196  OH         2.0280   -6.8860   11.6990 O.3   135  TYR135     -0.2866
    197  N          1.4330  -10.5590    1.8540 N.3   137  ALA137     -0.1231
    198  CA         2.4730  -11.4210    1.2970 C.3   137  ALA137      0.1694
    199  C          2.7450  -12.6190    2.2050 C.2   137  ALA137      0.2591
    200  O          3.1960  -13.6740    1.7350 O.2   137  ALA137     -0.2718
    201  CB         3.7620  -10.6240    1.0700 C.3   137  ALA137      0.0304
    202  N          2.4740  -12.4630    3.5010 N.am  138  LEU138     -0.1980
    203  CA         2.6780  -13.5590    4.4520 C.3   138  LEU138      0.1596
    204  C          1.4400  -14.4390    4.5870 C.2   138  LEU138      0.2287
    205  O          1.2960  -15.2090    5.5500 O.2   138  LEU138     -0.2864
    206  CB         3.0690  -13.0050    5.8230 C.3   138  LEU138      0.0297
    207  CG         4.5640  -12.8280    6.0780 C.3   138  LEU138      0.0022
    208  CD1        5.2360  -12.0640    4.9560 C.3   138  LEU138      0.0001
    209  CD2        4.7170  -12.0970    7.4180 C.3   138  LEU138      0.0001
@<TRIPOS>BOND
     1   173   170    1
     2   201   198    1
     3   198   197    1
     4   198   199    1
     5   170   171    1
     6   170   169    1
     7   200   199    2
     8   172   171    2
     9   127   125    1
    10   171   174   am
    11   199   202   am
    12    89    88    2
    13   163   161    1
    14   125   126    1
    15   125   124    2
    16   174   175    1
    17    87    88    1
    18    87    86    1
    19    88    90   am
    20   202   203    1
    21   154   153    2
    22   124   123    1
    23   162   161    1
    24   158   161    1
    25   158   157    1
    26   158   159    1
    27   160   159    2
    28   153   157   am
    29   153   152    1
    30   175   176    1
    31   175   178    1
    32   151   152    1
    33   159   164   am
    34   177   176    2
    35   203   204    1
    36   203   206    1
    37   204   205    2
    38   123   122    1
    39   176   185   am
    40    78    77    2
    41   152   155    1
    42    86    77   am
    43    90    91    1
    44   187   188    2
    45   187   186    1
    46    91    92    1
    47    91    94    1
    48   208   207    1
    49    77    76    1
    50   178   179    1
    51   185   186    1
    52    92   101   am
    53    92    93    2
    54   101   102    1
    55    95    94    1
    56    95    96    1
    57   164   165    1
    58   166   167    2
    59   166   165    1
    60   206   207    1
    61   186   189    1
    62   102   103    1
    63   122   121    1
    64   207   209    1
    65   180   179   ar
    66   180   182   ar
    67   155   156    1
    68    79    76    1
    69    79    80    1
    70   179   181   ar
    71   165   168    1
    72   121   118    1
    73    76    75    1
    74    96    97    1
    75   189   190    1
    76   182   184   ar
    77   103   104    2
    78   103   105   am
    79    81    80    1
    80    81    82    1
    81   181   183   ar
    82    97    98    2
    83    84    83    1
    84   118   117    1
    85   118   119    1
    86   105   106    1
    87   190   191   ar
    88   190   192   ar
    89   184   183   ar
    90   117   115   am
    91   150   148    1
    92   191   193   ar
    93    82    83    2
    94    98    99    1
    95    98   100    1
    96    83    85    1
    97   119   120    2
    98   192   194   ar
    99   147   146    2
   100   113   114    1
   101   113   107   am
   102   115   114    1
   103   115   116    2
   104   106   107    1
   105   106   109    1
   106   149   148    1
   107   146   145    1
   108   193   195   ar
   109   148   145    1
   110   107   108    2
   111   110   109    1
   112   110   112    1
   113   110   111    1
   114    73    72    1
   115   194   195   ar
   116   195   196    1
   117   145   144    1
   118    72    74    1
   119    72    69    1
   120     8     9    1
   121   144   138   am
   122   134   133    1
   123     9    12    1
   124     9    10    1
   125    67    65    1
   126    71    70    2
   127    18    17    1
   128   135   133    1
   129    70    69    1
   130   133   132    1
   131    13    10   am
   132    13    14    1
   133    69    68    1
   134   138   137    1
   135   138   139    2
   136   131   130    2
   137    10    11    2
   138    17    14    1
   139   137   140    1
   140   137   136    1
   141    65    66    1
   142    65    64    1
   143     4     3    2
   144    14    15    1
   145   130   136   am
   146   130   129    1
   147   140   141    1
   148    63    62    2
   149   132   129    1
   150    16    15    2
   151    64    61    1
   152   128   129    1
   153     7     5    1
   154    15    19   am
   155     3     2    1
   156   143   141   ar
   157     2     5    1
   158     2     1    1
   159    62    61    1
   160   141   142   ar
   161     6     5    1
   162    61    60    1
   163    24    23    1
   164    40    39    1
   165    19    20    1
   166    41    39    1
   167    39    36    1
   168    60    53   am
   169    20    23    1
   170    20    21    1
   171    23    25    1
   172    38    37    2
   173    53    54    2
   174    53    52    1
   175    36    37    1
   176    36    35    1
   177    37    42   am
   178    35    28   am
   179    51    52    1
   180    51    44   am
   181    21    22    2
   182    52    55    1
   183    42    43    1
   184    43    44    1
   185    43    46    1
   186    44    45    2
   187    34    32   ar
   188    31    32    1
   189    31    30    1
   190    28    27    1
   191    28    29    2
   192    27    30    1
   193    27    26    1
   194    46    47    1
   195    32    33   ar
   196    55    56    1
   197    57    56    1
   198    57    58    1
   199    59    58    1
   200    47    48    1
   201    50    48   am
   202    48    49    2
