@<TRIPOS>MOLECULE
tmp/1ghmA00.pdb
 119 112 0 0 0
SMALL
GASTEIGER

@<TRIPOS>ATOM
      1  N          4.5680  -13.3810  -13.3030 N.3    39  SER39      -0.1217
      2  CA         3.6660  -12.8900  -14.3460 C.3    39  SER39       0.1889
      3  C          3.9200  -13.3510  -15.7530 C.2    39  SER39       0.2288
      4  O          3.0980  -13.0870  -16.6200 O.2    39  SER39      -0.2866
      5  CB         3.5760  -11.3840  -14.3760 C.3    39  SER39       0.2089
      6  OG         2.8080  -10.9570  -13.2250 O.3    39  SER39      -0.2183
      7  N         -2.7390   -5.1870   -7.3640 N.3    72  TYR72      -0.1241
      8  CA        -2.0550   -4.8630   -8.6100 C.3    72  TYR72       0.1605
      9  C         -2.9380   -5.1820   -9.8180 C.2    72  TYR72       0.2264
     10  O         -2.5360   -5.9580  -10.7170 O.2    72  TYR72      -0.2867
     11  CB        -0.7410   -5.6390   -8.7450 C.3    72  TYR72       0.0534
     12  CG         0.3170   -5.1010   -7.8190 C.ar   72  TYR72      -0.0201
     13  CD1        1.1700   -4.0750   -8.2240 C.ar   72  TYR72      -0.0009
     14  CD2        0.3890   -5.5430   -6.5040 C.ar   72  TYR72      -0.0009
     15  CE1        2.0620   -3.5030   -7.3390 C.ar   72  TYR72       0.0417
     16  CE2        1.2670   -4.9840   -5.6110 C.ar   72  TYR72       0.0417
     17  CZ         2.1060   -3.9630   -6.0310 C.ar   72  TYR72       0.1957
     18  OH         3.0080   -3.4410   -5.1420 O.3    72  TYR72      -0.2866
     19  N         -0.7310   -4.4690  -18.7730 N.3    96  TYR96      -0.1227
     20  CA        -0.5950   -3.8940  -17.4560 C.3    96  TYR96       0.1736
     21  C         -0.3230   -4.9520  -16.3990 C.2    96  TYR96       0.2596
     22  O         -0.3310   -4.6390  -15.2050 O.2    96  TYR96      -0.2718
     23  CB        -1.8930   -3.1460  -17.0850 C.3    96  TYR96       0.0548
     24  CG        -2.1720   -2.0040  -18.0370 C.ar   96  TYR96      -0.0200
     25  CD1       -1.6120   -0.7390  -17.8180 C.ar   96  TYR96      -0.0009
     26  CD2       -2.9640   -2.1770  -19.1620 C.ar   96  TYR96      -0.0009
     27  CE1       -1.8510    0.3270  -18.6820 C.ar   96  TYR96       0.0417
     28  CE2       -3.2000   -1.0690  -20.0840 C.ar   96  TYR96       0.0417
     29  CZ        -2.6400    0.1640  -19.8020 C.ar   96  TYR96       0.1957
     30  OH        -2.8380    1.2480  -20.6160 O.3    96  TYR96      -0.2866
     31  N         -0.0980   -6.1880  -16.8450 N.am   97  SER97      -0.1952
     32  CA         0.0990   -7.3130  -15.9020 C.3    97  SER97       0.1924
     33  C         -0.9780   -7.2590  -14.8100 C.2    97  SER97       0.2314
     34  O         -0.7210   -7.4990  -13.6430 O.2    97  SER97      -0.2863
     35  CB         1.5620   -7.3090  -15.3310 C.3    97  SER97       0.2116
     36  OG         2.0570   -8.6560  -15.1300 O.3    97  SER97      -0.2180
     37  N         -3.5700   -8.4170  -12.3790 N.3    99  ASN99      -0.1240
     38  CA        -3.7180   -9.7370  -11.7770 C.3    99  ASN99       0.1653
     39  C         -5.1300  -10.2440  -11.7850 C.2    99  ASN99       0.2266
     40  O         -5.3470  -11.4530  -11.8660 O.2    99  ASN99      -0.2867
     41  CB        -3.1400   -9.7700  -10.3420 C.3    99  ASN99       0.1155
     42  CG        -1.5780   -9.6490  -10.2970 C.2    99  ASN99       0.2627
     43  OD1       -0.8740  -10.0330  -11.2280 O.2    99  ASN99      -0.2716
     44  ND2       -1.0560   -9.1300   -9.1820 N.am   99  ASN99      -0.0877
     45  N         -2.8720  -12.9990   -6.1260 N.3   134  ILE134     -0.1245
     46  CA        -1.4660  -12.6800   -6.2230 C.3   134  ILE134      0.1561
     47  C         -0.6240  -13.7320   -5.5120 C.2   134  ILE134      0.2260
     48  O          0.6070  -13.7240   -5.6140 O.2   134  ILE134     -0.2867
     49  CB        -1.2380  -11.2820   -5.6110 C.3   134  ILE134      0.0252
     50  CG1        0.0700  -10.7100   -6.1450 C.3   134  ILE134      0.0019
     51  CG2       -1.2540  -11.3670   -4.0670 C.3   134  ILE134      0.0019
     52  CD1        0.2320   -9.2660   -5.8250 C.3   134  ILE134      0.0001
     53  N          2.6180  -15.4250   -6.5130 N.3   137  GLN137     -0.1245
     54  CA         3.8510  -14.6140   -6.5150 C.3   137  GLN137      0.1566
     55  C          4.7220  -14.8220   -5.2560 C.2   137  GLN137      0.2260
     56  O          5.8550  -14.3090   -5.1960 O.2   137  GLN137     -0.2867
     57  CB         3.5260  -13.1130   -6.6530 C.3   137  GLN137      0.0367
     58  CG         2.6390  -12.7170   -7.8430 C.3   137  GLN137      0.0905
     59  CD         3.3100  -12.9580   -9.2080 C.2   137  GLN137      0.2608
     60  OE1        4.4850  -13.2680   -9.2530 O.2   137  GLN137     -0.2717
     61  NE2        2.5520  -12.8190  -10.3110 N.am  137  GLN137     -0.0878
     62  N          6.2000   -2.1500  -20.5540 N.3   183  SER183     -0.1217
     63  CA         6.7290   -2.5580  -19.2660 C.3   183  SER183      0.1889
     64  C          7.9210   -3.4710  -19.3860 C.2   183  SER183      0.2288
     65  O          8.6120   -3.6460  -18.4240 O.2   183  SER183     -0.2866
     66  CB         5.6790   -3.2560  -18.3500 C.3   183  SER183      0.2089
     67  OG         4.5270   -3.7150  -19.0320 O.3   183  SER183     -0.2183
     68  N          6.7710  -10.6510  -22.2620 N.3   201  LYS201     -0.1231
     69  CA         5.8990  -10.5710  -21.0750 C.3   201  LYS201      0.1693
     70  C          6.8550  -10.7710  -19.9160 C.2   201  LYS201      0.2593
     71  O          7.5760  -11.7950  -19.8470 O.2   201  LYS201     -0.2718
     72  CB         4.7770  -11.6600  -21.0230 C.3   201  LYS201      0.0285
     73  CG         3.9160  -11.4830  -19.7310 C.3   201  LYS201      0.0035
     74  CD         3.1760  -10.1520  -19.7520 C.3   201  LYS201      0.0206
     75  CE         2.4660   -9.8640  -18.3630 C.3   201  LYS201      0.1093
     76  NZ         3.4820   -9.5900  -17.3340 N.3   201  LYS201     -0.1314
     77  N          6.8990   -9.8000  -18.9990 N.am  202  SER202     -0.1938
     78  CA         7.8270   -9.9150  -17.8750 C.3   202  SER202      0.2055
     79  C          7.1690  -10.5480  -16.6440 C.2   202  SER202      0.2644
     80  O          5.9900  -10.8850  -16.6420 O.2   202  SER202     -0.2714
     81  CB         8.3380   -8.4990  -17.4570 C.3   202  SER202      0.2130
     82  OG         7.2350   -7.6900  -17.0160 O.3   202  SER202     -0.2179
     83  N          7.9800  -10.7620  -15.6060 N.am  203  GLY203     -0.1939
     84  CA         7.4280  -11.2690  -14.3840 C.3   203  GLY203      0.2014
     85  C          8.3520  -10.8130  -13.2510 C.2   203  GLY203      0.2639
     86  O          9.5450  -10.5760  -13.4660 O.2   203  GLY203     -0.2714
     87  N          7.8000  -10.6570  -12.0480 N.am  204  GLN204     -0.1963
     88  CA         8.6300  -10.4050  -10.8540 C.3   204  GLN204      0.1733
     89  C          7.8050  -10.9710   -9.6970 C.2   204  GLN204      0.2616
     90  O          6.6850  -10.4910   -9.4940 O.2   204  GLN204     -0.2715
     91  CB         8.8370   -8.9430  -10.5630 C.3   204  GLN204      0.0408
     92  CG         9.8640   -8.7540   -9.4410 C.3   204  GLN204      0.0908
     93  CD         9.9770   -7.3040   -9.0560 C.2   204  GLN204      0.2608
     94  OE1        9.6970   -6.4200   -9.8730 O.2   204  GLN204     -0.2717
     95  NE2       10.3870   -7.0390   -7.8020 N.am  204  GLN204     -0.0878
     96  N          8.2960  -12.0080   -9.0090 N.am  205  ALA205     -0.1963
     97  CA         7.5970  -12.5350   -7.8390 C.3   205  ALA205      0.1728
     98  C          7.9190  -11.5690   -6.6890 C.2   205  ALA205      0.2616
     99  O          8.7880  -10.7410   -6.8030 O.2   205  ALA205     -0.2715
    100  CB         8.1210  -13.9020   -7.4250 C.3   205  ALA205      0.0334
    101  N          7.2320  -11.7290   -5.5730 N.am  206  ILE206     -0.1977
    102  CA         7.4710  -10.8970   -4.3970 C.3   206  ILE206      0.1596
    103  C          8.8060  -11.2490   -3.7030 C.2   206  ILE206      0.2287
    104  O          9.4370  -10.4240   -3.0520 O.2   206  ILE206     -0.2864
    105  CB         6.2960  -11.1450   -3.4000 C.3   206  ILE206      0.0276
    106  CG1        4.9860  -10.6110   -4.0190 C.3   206  ILE206      0.0022
    107  CG2        6.6210  -10.5930   -2.0280 C.3   206  ILE206      0.0022
    108  CD1        3.7080  -11.1840   -3.2860 C.3   206  ILE206      0.0001
    109  N         13.0640  -12.4270  -10.9720 N.3   211  ARG211     -0.1245
    110  CA        12.8070  -11.4910  -12.0640 C.3   211  ARG211      0.1563
    111  C         12.9550  -12.2320  -13.4010 C.2   211  ARG211      0.2260
    112  O         14.0160  -12.7780  -13.6600 O.2   211  ARG211     -0.2867
    113  CB        13.8410  -10.3670  -11.9670 C.3   211  ARG211      0.0307
    114  CG        13.5970   -9.2230  -12.9190 C.3   211  ARG211      0.0489
    115  CD        12.1940   -8.6620  -12.8090 C.3   211  ARG211      0.2205
    116  NE        12.0890   -7.4320  -13.5580 N.pl3 211  ARG211     -0.0865
    117  CZ        10.9650   -6.9450  -14.0740 C.cat 211  ARG211      0.5346
    118  NH1        9.7810   -7.6130  -13.9570 N.pl3 211  ARG211      0.1354
    119  NH2       10.9990   -5.7430  -14.6640 N.pl3 211  ARG211      0.1354
@<TRIPOS>BOND
     1    68    69    1
     2    69    72    1
     3    69    70    1
     4    72    73    1
     5    30    29    1
     6    62    63    1
     7    28    29   ar
     8    28    26   ar
     9    70    71    2
    10    70    77   am
    11    29    27   ar
    12    74    73    1
    13    74    75    1
    14    64    63    1
    15    64    65    2
    16    63    66    1
    17    26    24   ar
    18    67    66    1
    19    77    78    1
    20    19    20    1
    21    27    25   ar
    22    75    76    1
    23    24    25   ar
    24    24    23    1
    25    78    81    1
    26    78    79    1
    27    81    82    1
    28    20    23    1
    29    20    21    1
    30    31    21   am
    31    31    32    1
    32    79    80    2
    33    79    83   am
    34     4     3    2
    35    21    22    2
    36    32    35    1
    37    32    33    1
    38     3     2    1
    39    83    84    1
    40    35    36    1
    41    33    34    2
    42   119   117    1
    43    84    85    1
    44     5     2    1
    45     5     6    1
    46     2     1    1
    47   117   118    1
    48   117   116    2
    49   112   111    2
    50   116   115    1
    51    86    85    2
    52   111   110    1
    53    85    87   am
    54   114   115    1
    55   114   113    1
    56    37    38    1
    57   110   113    1
    58   110   109    1
    59    87    88    1
    60    40    39    2
    61    39    38    1
    62    38    41    1
    63    43    42    2
    64    88    91    1
    65    88    89    1
    66    10     9    2
    67    91    92    1
    68    41    42    1
    69    61    59   am
    70    42    44   am
    71    94    93    2
    72     9     8    1
    73    89    90    2
    74    89    96   am
    75    92    93    1
    76    60    59    2
    77    59    58    1
    78    93    95   am
    79    96    97    1
    80    11     8    1
    81    11    12    1
    82     8     7    1
    83    13    12   ar
    84    13    15   ar
    85    58    57    1
    86    97   100    1
    87    97    98    1
    88    12    14   ar
    89    15    17   ar
    90    99    98    2
    91    98   101   am
    92    57    54    1
    93    54    53    1
    94    54    55    1
    95    14    16   ar
    96    46    45    1
    97    46    49    1
    98    46    47    1
    99    50    52    1
   100    50    49    1
   101    17    16   ar
   102    17    18    1
   103    48    47    2
   104    49    51    1
   105   101   102    1
   106    55    56    2
   107   102   103    1
   108   102   105    1
   109   106   105    1
   110   106   108    1
   111   103   104    2
   112   105   107    1
