@<TRIPOS>MOLECULE
tmp/1ghpA00.pdb
 118 111 0 0 0
SMALL
GASTEIGER

@<TRIPOS>ATOM
      1  N          6.2020  -16.3520  -11.9390 N.3    38  ALA38      -0.1231
      2  CA         5.5100  -15.0890  -11.6470 C.3    38  ALA38       0.1694
      3  C          4.5600  -14.6590  -12.8150 C.2    38  ALA38       0.2592
      4  O          3.9480  -15.5080  -13.4280 O.2    38  ALA38      -0.2718
      5  CB         6.5270  -13.9500  -11.2600 C.3    38  ALA38       0.0304
      6  N          4.5350  -13.3910  -13.1660 N.am   39  SER39      -0.1952
      7  CA         3.6280  -12.9100  -14.1820 C.3    39  SER39       0.1924
      8  C          3.8730  -13.3760  -15.5910 C.2    39  SER39       0.2314
      9  O          3.0550  -13.0690  -16.4460 O.2    39  SER39      -0.2863
     10  CB         3.6460  -11.4110  -14.2290 C.3    39  SER39       0.2116
     11  OG         2.8530  -10.8870  -13.2260 O.3    39  SER39      -0.2180
     12  N          1.0810  -15.1260  -17.3750 N.3    42  LYS42      -0.1245
     13  CA        -0.0220  -14.4100  -18.0360 C.3    42  LYS42       0.1561
     14  C         -0.0680  -14.6370  -19.5690 C.2    42  LYS42       0.2260
     15  O         -1.1500  -14.7220  -20.1870 O.2    42  LYS42      -0.2867
     16  CB         0.0030  -12.9130  -17.7130 C.3    42  LYS42       0.0271
     17  CG        -0.3110  -12.6040  -16.2080 C.3    42  LYS42       0.0035
     18  CD        -0.4230  -11.1080  -16.0000 C.3    42  LYS42       0.0206
     19  CE        -0.9400  -10.7760  -14.6280 C.3    42  LYS42       0.1093
     20  NZ         0.1870  -10.6730  -13.6670 N.3    42  LYS42      -0.1314
     21  N         -2.8290   -5.3620   -7.3050 N.3    72  TYR72      -0.1241
     22  CA        -2.0970   -4.9940   -8.5200 C.3    72  TYR72       0.1605
     23  C         -2.9660   -5.3350   -9.7230 C.2    72  TYR72       0.2264
     24  O         -2.6930   -6.2820  -10.4570 O.2    72  TYR72      -0.2867
     25  CB        -0.7570   -5.7230   -8.6130 C.3    72  TYR72       0.0534
     26  CG         0.1150   -5.4760   -7.4170 C.ar   72  TYR72      -0.0201
     27  CD1        0.7190   -4.2440   -7.2310 C.ar   72  TYR72      -0.0009
     28  CD2        0.2520   -6.4430   -6.4090 C.ar   72  TYR72      -0.0009
     29  CE1        1.4270   -3.9680   -6.0540 C.ar   72  TYR72       0.0417
     30  CE2        0.9600   -6.1730   -5.2560 C.ar   72  TYR72       0.0417
     31  CZ         1.5270   -4.9400   -5.0960 C.ar   72  TYR72       0.1957
     32  OH         2.1950   -4.6570   -3.9680 O.3    72  TYR72      -0.2866
     33  N         -0.7340   -4.4390  -18.6710 N.3    96  TYR96      -0.1227
     34  CA        -0.5830   -3.9380  -17.3270 C.3    96  TYR96       0.1736
     35  C         -0.2830   -5.0120  -16.3140 C.2    96  TYR96       0.2596
     36  O         -0.2120   -4.7070  -15.1230 O.2    96  TYR96      -0.2718
     37  CB        -1.8400   -3.1290  -16.8930 C.3    96  TYR96       0.0548
     38  CG        -2.1060   -1.9080  -17.7350 C.ar   96  TYR96      -0.0200
     39  CD1       -1.6550   -0.6400  -17.3520 C.ar   96  TYR96      -0.0009
     40  CD2       -2.7960   -2.0300  -18.9580 C.ar   96  TYR96      -0.0009
     41  CE1       -1.8720    0.5010  -18.1580 C.ar   96  TYR96       0.0417
     42  CE2       -3.0180   -0.8940  -19.7870 C.ar   96  TYR96       0.0417
     43  CZ        -2.5600    0.3640  -19.3880 C.ar   96  TYR96       0.1957
     44  OH        -2.7850    1.4400  -20.2520 O.3    96  TYR96      -0.2866
     45  N         -0.0810   -6.2320  -16.7530 N.am   97  SER97      -0.1952
     46  CA         0.1140   -7.3300  -15.8170 C.3    97  SER97       0.1924
     47  C         -1.0000   -7.2700  -14.7210 C.2    97  SER97       0.2314
     48  O         -0.7310   -7.4730  -13.5400 O.2    97  SER97      -0.2863
     49  CB         1.5420   -7.3200  -15.1810 C.3    97  SER97       0.2116
     50  OG         1.9350   -8.6430  -14.8520 O.3    97  SER97      -0.2180
     51  N         -3.4980   -8.4060  -12.2920 N.3    99  ASN99      -0.1240
     52  CA        -3.6470   -9.7080  -11.6910 C.3    99  ASN99       0.1653
     53  C         -5.0730  -10.2190  -11.7010 C.2    99  ASN99       0.2266
     54  O         -5.2940  -11.4450  -11.7920 O.2    99  ASN99      -0.2867
     55  CB        -3.0770   -9.7360  -10.2560 C.3    99  ASN99       0.1155
     56  CG        -1.5630   -9.7130  -10.2380 C.2    99  ASN99       0.2627
     57  OD1       -0.9200  -10.2320  -11.1480 O.2    99  ASN99      -0.2716
     58  ND2       -0.9830   -9.1430   -9.1800 N.am   99  ASN99      -0.0877
     59  N         -2.7230  -13.2030   -6.1500 N.3   134  ILE134     -0.1245
     60  CA        -1.2650  -13.0150   -6.1830 C.3   134  ILE134      0.1561
     61  C         -0.5600  -14.1180   -5.4210 C.2   134  ILE134      0.2260
     62  O          0.6570  -14.0850   -5.2970 O.2   134  ILE134     -0.2867
     63  CB        -0.7810  -11.7340   -5.4090 C.3   134  ILE134      0.0252
     64  CG1       -1.2840  -11.7690   -3.9810 C.3   134  ILE134      0.0019
     65  CG2       -1.1380  -10.4570   -6.0690 C.3   134  ILE134      0.0019
     66  CD1       -0.8990  -10.5310   -3.2630 C.3   134  ILE134      0.0001
     67  N          2.5790  -15.7080   -6.5140 N.3   137  GLN137     -0.1245
     68  CA         3.7790  -14.8720   -6.4410 C.3   137  GLN137      0.1566
     69  C          4.6170  -15.1080   -5.1740 C.2   137  GLN137      0.2260
     70  O          5.7140  -14.5900   -5.0730 O.2   137  GLN137     -0.2867
     71  CB         3.4240  -13.3790   -6.5800 C.3   137  GLN137      0.0367
     72  CG         2.5420  -12.9620   -7.7640 C.3   137  GLN137      0.0905
     73  CD         3.1850  -13.2180   -9.1400 C.2   137  GLN137      0.2608
     74  OE1        4.3840  -13.4940   -9.2510 O.2   137  GLN137     -0.2717
     75  NE2        2.3770  -13.1140  -10.1960 N.am  137  GLN137     -0.0878
     76  N          6.8620   -9.7960  -18.9090 N.3   202  SER202     -0.1202
     77  CA         7.7840   -9.8520  -17.7670 C.3   202  SER202      0.2020
     78  C          7.1330  -10.4260  -16.4670 C.2   202  SER202      0.2619
     79  O          5.9190  -10.6570  -16.4130 O.2   202  SER202     -0.2717
     80  CB         8.3500   -8.4540  -17.5160 C.3   202  SER202      0.2103
     81  OG         7.3900   -7.5240  -17.0740 O.3   202  SER202     -0.2182
     82  N          7.9590  -10.7520  -15.4590 N.am  203  GLY203     -0.1942
     83  CA         7.4020  -11.2290  -14.2170 C.3   203  GLY203      0.2014
     84  C          8.3270  -10.8620  -13.0870 C.2   203  GLY203      0.2639
     85  O          9.5330  -10.6620  -13.3090 O.2   203  GLY203     -0.2714
     86  N          7.7410  -10.6660  -11.9030 N.am  204  GLN204     -0.1963
     87  CA         8.5110  -10.4250  -10.6680 C.3   204  GLN204      0.1733
     88  C          7.7110  -10.9740   -9.5190 C.2   204  GLN204      0.2616
     89  O          6.6000  -10.5350   -9.3190 O.2   204  GLN204     -0.2715
     90  CB         8.7120   -8.9650  -10.4140 C.3   204  GLN204      0.0408
     91  CG         9.8060   -8.7600   -9.3640 C.3   204  GLN204      0.0908
     92  CD        10.0660   -7.3380   -9.1710 C.2   204  GLN204      0.2608
     93  OE1        9.6430   -6.4830   -9.9610 O.2   204  GLN204     -0.2717
     94  NE2       10.6870   -7.0280   -8.0600 N.am  204  GLN204     -0.0878
     95  N          8.2050  -12.0180   -8.8830 N.am  205  ALA205     -0.1963
     96  CA         7.5540  -12.6210   -7.7470 C.3   205  ALA205      0.1728
     97  C          7.8710  -11.7400   -6.5530 C.2   205  ALA205      0.2616
     98  O          8.6520  -10.8100   -6.6460 O.2   205  ALA205     -0.2715
     99  CB         8.0200  -14.0480   -7.4990 C.3   205  ALA205      0.0334
    100  N          7.1620  -11.9750   -5.4580 N.am  206  ILE206     -0.1977
    101  CA         7.3420  -11.1920   -4.2630 C.3   206  ILE206      0.1596
    102  C          8.6930  -11.5420   -3.6220 C.2   206  ILE206      0.2287
    103  O          9.3810  -10.6770   -3.0910 O.2   206  ILE206     -0.2864
    104  CB         6.2260  -11.5530   -3.2120 C.3   206  ILE206      0.0276
    105  CG1        4.8250  -11.1970   -3.7540 C.3   206  ILE206      0.0022
    106  CG2        6.4990  -10.8750   -1.8380 C.3   206  ILE206      0.0022
    107  CD1        4.6420   -9.7310   -4.0360 C.3   206  ILE206      0.0001
    108  N         12.9130  -12.3510  -10.9440 N.3   211  ARG211     -0.1245
    109  CA        12.6400  -11.4040  -12.0220 C.3   211  ARG211      0.1563
    110  C         12.8070  -12.1940  -13.3300 C.2   211  ARG211      0.2260
    111  O         13.8690  -12.8290  -13.5650 O.2   211  ARG211     -0.2867
    112  CB        13.6120  -10.2380  -11.9210 C.3   211  ARG211      0.0307
    113  CG        13.4950   -9.2170  -12.9570 C.3   211  ARG211      0.0489
    114  CD        12.1390   -8.6300  -12.8730 C.3   211  ARG211      0.2205
    115  NE        12.1210   -7.3300  -13.4780 N.pl3 211  ARG211     -0.0865
    116  CZ        11.0540   -6.7730  -13.9910 C.cat 211  ARG211      0.5346
    117  NH1        9.9200   -7.4480  -13.9880 N.pl3 211  ARG211      0.1354
    118  NH2       11.1070   -5.5060  -14.3650 N.pl3 211  ARG211      0.1354
@<TRIPOS>BOND
     1    44    43    1
     2    15    14    2
     3    42    43   ar
     4    42    40   ar
     5    14    13    1
     6    43    41   ar
     7    40    38   ar
     8    76    77    1
     9    33    34    1
    10    41    39   ar
    11    13    16    1
    12    13    12    1
    13    77    80    1
    14    77    78    1
    15    38    39   ar
    16    38    37    1
    17    16    17    1
    18    80    81    1
    19    34    37    1
    20    34    35    1
    21    45    35   am
    22    45    46    1
    23    78    79    2
    24    78    82   am
    25     9     8    2
    26    35    36    2
    27    17    18    1
    28    18    19    1
    29    46    49    1
    30    46    47    1
    31     8     7    1
    32    82    83    1
    33    49    50    1
    34    47    48    2
    35    19    20    1
    36   118   116    1
    37    10     7    1
    38    10    11    1
    39    83    84    1
    40     7     6    1
    41   116   117    1
    42   116   115    2
    43   111   110    2
    44   115   114    1
    45     4     3    2
    46   110   109    1
    47    85    84    2
    48     6     3   am
    49    84    86   am
    50   113   114    1
    51   113   112    1
    52     3     2    1
    53    51    52    1
    54   109   112    1
    55   109   108    1
    56     1     2    1
    57    86    87    1
    58    54    53    2
    59    53    52    1
    60    52    55    1
    61     2     5    1
    62    57    56    2
    63    87    90    1
    64    87    88    1
    65    24    23    2
    66    90    91    1
    67    55    56    1
    68    56    58   am
    69    75    73   am
    70    93    92    2
    71    23    22    1
    72    88    89    2
    73    88    95   am
    74    91    92    1
    75    74    73    2
    76    92    94   am
    77    73    72    1
    78    95    96    1
    79    25    22    1
    80    25    26    1
    81    22    21    1
    82    72    71    1
    83    96    99    1
    84    96    97    1
    85    26    27   ar
    86    26    28   ar
    87    27    29   ar
    88    98    97    2
    89    71    68    1
    90    97   100   am
    91    67    68    1
    92    68    69    1
    93    28    30   ar
    94    60    59    1
    95    60    61    1
    96    60    63    1
    97    65    63    1
    98    29    31   ar
    99   100   101    1
   100    61    62    2
   101    63    64    1
   102    30    31   ar
   103    69    70    2
   104    31    32    1
   105   101   102    1
   106   101   104    1
   107   107   105    1
   108    64    66    1
   109   105   104    1
   110   102   103    2
   111   104   106    1
