@<TRIPOS>MOLECULE
tmp/1ghwB00.pdb
 153 152 0 0 0
SMALL
GASTEIGER

@<TRIPOS>ATOM
      1  N         14.2030   -7.8990    9.2760 N.3    27  LEU27      -0.1231
      2  CA        15.3210   -8.3240   10.1230 C.3    27  LEU27       0.1693
      3  C         15.0500   -7.9790   11.5880 C.2    27  LEU27       0.2592
      4  O         15.1010   -8.8370   12.4460 O.2    27  LEU27      -0.2718
      5  CB        16.5580   -7.5980    9.6340 C.3    27  LEU27       0.0284
      6  CG        17.7720   -8.4720    9.7750 C.3    27  LEU27       0.0019
      7  CD1       17.7620   -9.5470    8.6320 C.3    27  LEU27       0.0001
      8  CD2       18.9870   -7.5580    9.6410 C.3    27  LEU27       0.0001
      9  N         14.7650   -6.7360   11.8440 N.am   28  CYS28      -0.1970
     10  CA        14.4940   -6.2730   13.2400 C.3    28  CYS28       0.1712
     11  C         13.7390   -4.9550   13.1660 C.2    28  CYS28       0.2296
     12  O         13.3900   -4.4690   12.1000 O.2    28  CYS28      -0.2864
     13  CB        15.8380   -6.0360   13.9770 C.3    28  CYS28       0.0983
     14  SG        16.7990   -7.3740   14.7280 S.3    28  CYS28      -0.0798
     15  N         22.7140   -7.1040   18.4210 N.3    43  HIS43      -0.1241
     16  CA        22.5780   -8.5230   17.9880 C.3    43  HIS43       0.1621
     17  C         21.7870   -8.6370   16.7150 C.2    43  HIS43       0.2264
     18  O         21.7390   -9.6950   16.1340 O.2    43  HIS43      -0.2867
     19  CB        21.8990   -9.4150   19.0990 C.3    43  HIS43       0.0745
     20  CG        20.3640   -9.4850   19.1840 C.ar   43  HIS43       0.0817
     21  ND1       19.5670   -8.9260   20.0690 N.ar   43  HIS43      -0.2268
     22  CD2       19.5630  -10.1960   18.3190 C.ar   43  HIS43       0.1154
     23  CE1       18.3430   -9.2730   19.7720 C.ar   43  HIS43       0.1986
     24  NE2       18.3200  -10.0420   18.7190 N.ar   43  HIS43      -0.2212
     25  N         25.7760  -17.4350   15.1630 N.3    50  TRP50      -0.1241
     26  CA        24.9380  -17.7740   13.9610 C.3    50  TRP50       0.1605
     27  C         25.5340  -17.1010   12.7400 C.2    50  TRP50       0.2264
     28  O         24.8780  -16.9270   11.7370 O.2    50  TRP50      -0.2867
     29  CB        23.5050  -17.2570   14.1240 C.3    50  TRP50       0.0550
     30  CG        22.8130  -17.8280   15.3530 C.ar   50  TRP50       0.0003
     31  CD1       23.1500  -18.9530   16.0490 C.ar   50  TRP50       0.0946
     32  CD2       21.6970  -17.2970   15.9350 C.ar   50  TRP50       0.0152
     33  NE1       22.2760  -19.0980   17.0080 N.ar   50  TRP50      -0.2442
     34  CE2       21.3740  -18.1430   17.0020 C.ar   50  TRP50       0.0810
     35  CE3       20.9200  -16.1740   15.6690 C.ar   50  TRP50       0.0012
     36  CZ2       20.2570  -17.8520   17.7970 C.ar   50  TRP50       0.0191
     37  CZ3       19.8130  -15.8880   16.4610 C.ar   50  TRP50       0.0001
     38  CH2       19.4810  -16.7270   17.5230 C.ar   50  TRP50       0.0015
     39  N         26.1790  -13.9700   12.0710 N.3    52  LYS52      -0.1245
     40  CA        25.4740  -12.7360   11.5510 C.3    52  LYS52       0.1561
     41  C         26.5110  -11.6400   11.6830 C.2    52  LYS52       0.2260
     42  O         27.1160  -11.5200   12.7330 O.2    52  LYS52      -0.2867
     43  CB        24.3530  -12.1110   12.3790 C.3    52  LYS52       0.0271
     44  CG        23.0780  -12.8630   12.3810 C.3    52  LYS52       0.0035
     45  CD        22.0600  -11.8930   13.0340 C.3    52  LYS52       0.0206
     46  CE        20.6840  -12.5300   13.0000 C.3    52  LYS52       0.1093
     47  NZ        19.8110  -11.8380   13.9740 N.3    52  LYS52      -0.1314
     48  N          4.1030   -9.8670   25.2500 N.3   192  ASP192     -0.1225
     49  CA         5.5820   -9.9080   25.1910 C.3   192  ASP192      0.1805
     50  C          5.9680   -9.5870   23.7400 C.2   192  ASP192      0.2598
     51  O          5.1410   -9.5180   22.8380 O.2   192  ASP192     -0.2718
     52  CB         6.0800  -11.3570   25.6130 C.3   192  ASP192      0.1424
     53  CG         7.6200  -11.5040   25.8080 C.2   192  ASP192      0.3668
     54  OD1        8.3050  -10.4950   25.9280 O.co2 192  ASP192     -0.2456
     55  OD2        8.0520  -12.6520   25.8370 O.co2 192  ASP192     -0.2456
     56  N          7.2340   -9.3780   23.5470 N.am  193  ALA193     -0.1966
     57  CA         7.7320   -9.0940   22.1960 C.3   193  ALA193      0.1728
     58  C          8.0700  -10.5400   21.7720 C.2   193  ALA193      0.2616
     59  O          7.9500  -11.4700   22.5470 O.2   193  ALA193     -0.2715
     60  CB         8.9990   -8.2370   22.2540 C.3   193  ALA193      0.0334
     61  N          8.4890  -10.7150   20.5730 N.am  194  CYS194     -0.1954
     62  CA         8.8270  -12.0660   20.1060 C.3   194  CYS194      0.1843
     63  C          9.7990  -11.8550   18.9630 C.2   194  CYS194      0.2625
     64  O         10.1170  -10.7210   18.6380 O.2   194  CYS194     -0.2714
     65  CB         7.5410  -12.7790   19.6520 C.3   194  CYS194      0.0997
     66  SG         7.7020  -14.5650   19.4250 S.3   194  CYS194     -0.0797
     67  N         10.2240  -12.9400   18.3990 N.am  195  GLU195     -0.1963
     68  CA        11.1860  -12.9170   17.2650 C.3   195  GLU195      0.1733
     69  C         10.7480  -11.9260   16.1960 C.2   195  GLU195      0.2616
     70  O          9.5870  -11.9170   15.8250 O.2   195  GLU195     -0.2715
     71  CB        11.2540  -14.2820   16.6250 C.3   195  GLU195      0.0429
     72  CG        12.6330  -14.4720   16.0460 C.3   195  GLU195      0.1163
     73  CD        12.6610  -15.7010   15.1180 C.2   195  GLU195      0.3649
     74  OE1       12.7170  -15.4640   13.9220 O.co2 195  GLU195     -0.2457
     75  OE2       12.6240  -16.7990   15.6580 O.co2 195  GLU195     -0.2457
     76  N         11.6600  -11.1320   15.7250 N.am  196  GLY196     -0.1955
     77  CA        11.3290  -10.1320   14.6700 C.3   196  GLY196      0.1869
     78  C         11.1300   -8.7730   15.2830 C.2   196  GLY196      0.2309
     79  O         11.1180   -7.7840   14.5750 O.2   196  GLY196     -0.2863
     80  N         13.0870   -7.7190   18.0250 N.3   198  SER198     -0.1217
     81  CA        14.3870   -7.2030   18.5820 C.3   198  SER198      0.1889
     82  C         14.7610   -5.8530   17.9340 C.2   198  SER198      0.2288
     83  O         14.4040   -5.6380   16.7910 O.2   198  SER198     -0.2866
     84  CB        15.5740   -8.1500   18.2800 C.3   198  SER198      0.2089
     85  OG        15.3710   -9.3900   18.9480 O.3   198  SER198     -0.2183
     86  N         14.2660   -3.5820   22.5560 N.3   218  VAL218     -0.1231
     87  CA        13.9000   -5.0240   22.7310 C.3   218  VAL218      0.1692
     88  C         15.2180   -5.7890   22.5350 C.2   218  VAL218      0.2593
     89  O         15.8390   -5.6960   21.4850 O.2   218  VAL218     -0.2718
     90  CB        12.8350   -5.4010   21.6630 C.3   218  VAL218      0.0266
     91  CG1       12.3810   -6.8520   21.8960 C.3   218  VAL218      0.0020
     92  CG2       11.5620   -4.4890   21.7820 C.3   218  VAL218      0.0020
     93  N         15.6010   -6.5330   23.5390 N.am  219  SER219     -0.1938
     94  CA        16.8720   -7.3000   23.4750 C.3   219  SER219      0.2055
     95  C         16.6950   -8.8030   23.4080 C.2   219  SER219      0.2643
     96  O         17.0670   -9.3690   22.3980 O.2   219  SER219     -0.2714
     97  CB        17.6880   -6.9200   24.7090 C.3   219  SER219      0.2130
     98  OG        18.9940   -7.4080   24.4670 O.3   219  SER219     -0.2179
     99  N         16.1690   -9.4270   24.4310 N.am  220  TRP220     -0.1959
    100  CA        15.9970  -10.8960   24.3600 C.3   220  TRP220      0.1771
    101  C         14.8810  -11.3850   25.2530 C.2   220  TRP220      0.2620
    102  O         14.2010  -10.6310   25.9280 O.2   220  TRP220     -0.2715
    103  CB        17.3600  -11.6440   24.7280 C.3   220  TRP220      0.0590
    104  CG        17.9880  -11.3230   26.0960 C.ar  220  TRP220      0.0006
    105  CD1       18.8450  -10.2850   26.3820 C.ar  220  TRP220      0.0946
    106  CD2       17.7990  -12.0410   27.2600 C.ar  220  TRP220      0.0152
    107  NE1       19.1600  -10.3690   27.6480 N.ar  220  TRP220     -0.2442
    108  CE2       18.5690  -11.3960   28.2360 C.ar  220  TRP220      0.0810
    109  CE3       17.0490  -13.1630   27.5990 C.ar  220  TRP220      0.0012
    110  CZ2       18.5690  -11.8970   29.5490 C.ar  220  TRP220      0.0191
    111  CZ3       17.0520  -13.6500   28.9020 C.ar  220  TRP220      0.0001
    112  CH2       17.8130  -13.0160   29.8770 C.ar  220  TRP220      0.0015
    113  N         14.6880  -12.6630   25.2200 N.am  221  GLY221     -0.1954
    114  CA        13.6420  -13.3180   26.0350 C.3   221  GLY221      0.1869
    115  C         13.8550  -14.7820   25.7300 C.2   221  GLY221      0.2309
    116  O         14.5450  -15.0890   24.7760 O.2   221  GLY221     -0.2863
    117  N         11.8310  -17.6450   24.6650 N.3   223  GLY223     -0.1210
    118  CA        10.5040  -18.0130   24.1190 C.3   223  GLY223      0.1956
    119  C          9.6950  -16.7250   24.0790 C.2   223  GLY223      0.2612
    120  O         10.2240  -15.6530   24.3180 O.2   223  GLY223     -0.2717
    121  N          8.4360  -16.8150   23.7940 N.am  224  CYS224     -0.1970
    122  CA         7.5960  -15.5980   23.7400 C.3   224  CYS224      0.1712
    123  C          6.3800  -15.8630   24.5990 C.2   224  CYS224      0.2296
    124  O          5.7770  -16.9160   24.5360 O.2   224  CYS224     -0.2864
    125  CB         7.1810  -15.3260   22.2990 C.3   224  CYS224      0.0983
    126  SG         8.5550  -15.1540   21.1560 S.3   224  CYS224     -0.0798
    127  N         10.6280  -10.3500   29.1630 N.3   231  GLY231     -0.1210
    128  CA        11.4760   -9.9330   28.0230 C.3   231  GLY231      0.1956
    129  C         12.4790   -9.0000   28.6660 C.2   231  GLY231      0.2612
    130  O         12.1570   -8.3450   29.6430 O.2   231  GLY231     -0.2717
    131  N         13.6550   -8.9630   28.1110 N.am  232  PHE232     -0.1962
    132  CA        14.7200   -8.0950   28.6450 C.3   232  PHE232      0.1771
    133  C         14.9610   -7.0830   27.5670 C.2   232  PHE232      0.2619
    134  O         14.8570   -7.3920   26.3830 O.2   232  PHE232     -0.2715
    135  CB        16.0320   -8.9160   28.9470 C.3   232  PHE232      0.0574
    136  CG        15.7780   -9.7610   30.2230 C.ar  232  PHE232     -0.0200
    137  CD1       15.0340  -10.9290   30.1650 C.ar  232  PHE232     -0.0042
    138  CD2       16.2670   -9.3420   31.4500 C.ar  232  PHE232     -0.0042
    139  CE1       14.7790  -11.6620   31.3070 C.ar  232  PHE232     -0.0003
    140  CE2       16.0090  -10.0800   32.5950 C.ar  232  PHE232     -0.0003
    141  CZ        15.2620  -11.2430   32.5240 C.ar  232  PHE232     -0.0000
    142  N         15.2720   -5.9080   28.0460 N.am  233  TYR233     -0.1974
    143  CA        15.5440   -4.7330   27.1930 C.3   233  TYR233      0.1639
    144  C         16.8360   -4.0710   27.5910 C.2   233  TYR233      0.2290
    145  O         17.2010   -4.1410   28.7440 O.2   233  TYR233     -0.2864
    146  CB        14.3710   -3.7010   27.3520 C.3   233  TYR233      0.0560
    147  CG        12.9940   -4.3440   27.0850 C.ar  233  TYR233     -0.0198
    148  CD1       12.3820   -5.1660   28.0260 C.ar  233  TYR233     -0.0009
    149  CD2       12.3630   -4.1200   25.8830 C.ar  233  TYR233     -0.0009
    150  CE1       11.1600   -5.7540   27.7600 C.ar  233  TYR233      0.0417
    151  CE2       11.1510   -4.7060   25.6300 C.ar  233  TYR233      0.0417
    152  CZ        10.5540   -5.5150   26.5470 C.ar  233  TYR233      0.1957
    153  OH         9.3550   -6.1000   26.2160 O.3   233  TYR233     -0.2866
@<TRIPOS>BOND
     1     7     6    1
     2     1     2    1
     3     5     6    1
     4     5     2    1
     5     8     6    1
     6     2     3    1
     7    40    41    1
     8    40    39    1
     9    40    43    1
    10     3     9   am
    11     3     4    2
    12    41    42    2
    13    28    27    2
    14     9    10    1
    15    12    11    2
    16    43    44    1
    17    44    45    1
    18    27    26    1
    19    46    45    1
    20    46    47    1
    21    11    10    1
    22    10    13    1
    23    74    73   ar
    24    26    29    1
    25    26    25    1
    26    13    14    1
    27    29    30    1
    28    79    78    2
    29    77    78    1
    30    77    76    1
    31    73    75   ar
    32    73    72    1
    33    30    32   ar
    34    30    31   ar
    35    35    32   ar
    36    35    37   ar
    37    76    69   am
    38    70    69    2
    39    32    34   ar
    40    72    71    1
    41    31    33   ar
    42    18    17    2
    43    69    68    1
    44    37    38   ar
    45    71    68    1
    46    17    16    1
    47    83    82    2
    48    34    33   ar
    49    34    36   ar
    50    68    67    1
    51    38    36   ar
    52    82    81    1
    53    16    15    1
    54    16    19    1
    55    80    81    1
    56    84    81    1
    57    84    85    1
    58    22    24   ar
    59    22    20   ar
    60    67    63   am
    61    64    63    2
    62    24    23   ar
    63    63    62    1
    64    19    20    1
    65    20    21   ar
    66    66    65    1
    67    66   126    1
    68    65    62    1
    69    23    21   ar
    70    62    61    1
    71    61    58   am
    72   126   125    1
    73    89    88    2
    74    90    92    1
    75    90    91    1
    76    90    87    1
    77    58    57    1
    78    58    59    2
    79    57    60    1
    80    57    56    1
    81   125   122    1
    82    96    95    2
    83    88    87    1
    84    88    93   am
    85    86    87    1
    86    51    50    2
    87    95    94    1
    88    95    99   am
    89    94    93    1
    90    94    97    1
    91    56    50   am
    92   122   121    1
    93   122   123    1
    94    50    49    1
    95   121   119   am
    96   119   118    1
    97   119   120    2
    98   118   117    1
    99   100    99    1
   100   100   103    1
   101   100   101    1
   102    98    97    1
   103   124   123    2
   104   103   104    1
   105   116   115    2
   106    49    48    1
   107    49    52    1
   108   113   101   am
   109   113   114    1
   110   101   102    2
   111    52    53    1
   112   151   149   ar
   113   151   152   ar
   114   115   114    1
   115    53    55   ar
   116    53    54   ar
   117   149   147   ar
   118   104   105   ar
   119   104   106   ar
   120   153   152    1
   121   105   107   ar
   122   134   133    2
   123   152   150   ar
   124   147   146    1
   125   147   148   ar
   126   143   146    1
   127   143   144    1
   128   143   142    1
   129   106   109   ar
   130   106   108   ar
   131   133   142   am
   132   133   132    1
   133   144   145    2
   134   109   111   ar
   135   107   108   ar
   136   150   148   ar
   137   128   129    1
   138   128   127    1
   139   131   132    1
   140   131   129   am
   141   108   110   ar
   142   132   135    1
   143   129   130    2
   144   111   112   ar
   145   135   136    1
   146   110   112   ar
   147   137   136   ar
   148   137   139   ar
   149   136   138   ar
   150   139   141   ar
   151   138   140   ar
   152   141   140   ar
