@<TRIPOS>MOLECULE
tmp/1ghzA00.pdb
 128 128 0 0 0
SMALL
GASTEIGER

@<TRIPOS>ATOM
      1  N         36.4200   23.6820   45.3330 N.3    40  HIS40      -0.1241
      2  CA        37.3470   24.8060   45.5980 C.3    40  HIS40       0.1621
      3  C         38.4400   24.9140   44.5140 C.2    40  HIS40       0.2264
      4  O         39.2370   25.8350   44.5520 O.2    40  HIS40      -0.2867
      5  CB        37.9770   24.6560   47.0170 C.3    40  HIS40       0.0745
      6  CG        39.1330   23.6580   47.2680 C.ar   40  HIS40       0.0817
      7  ND1       39.0290   22.4270   47.7240 N.ar   40  HIS40      -0.2268
      8  CD2       40.5200   23.8510   47.0860 C.ar   40  HIS40       0.1154
      9  CE1       40.2000   21.8840   47.8260 C.ar   40  HIS40       0.1986
     10  NE2       41.1050   22.7320   47.4480 N.ar   40  HIS40      -0.2212
     11  N         50.5620   12.6080   54.6420 N.3   171  ASP171     -0.1225
     12  CA        49.2580   13.3220   54.3830 C.3   171  ASP171      0.1805
     13  C         49.2300   13.8860   52.9470 C.2   171  ASP171      0.2598
     14  O         50.2590   13.8640   52.2740 O.2   171  ASP171     -0.2718
     15  CB        49.1660   14.5090   55.4060 C.3   171  ASP171      0.1424
     16  CG        47.8190   15.2790   55.5200 C.2   171  ASP171      0.3668
     17  OD1       47.8430   16.2850   56.2230 O.co2 171  ASP171     -0.2456
     18  OD2       46.8510   14.8400   54.9250 O.co2 171  ASP171     -0.2456
     19  N         48.0770   14.3730   52.5170 N.am  172  SER172     -0.1938
     20  CA        47.9820   14.9830   51.1550 C.3   172  SER172      0.2055
     21  C         48.3490   16.4680   51.5320 C.2   172  SER172      0.2643
     22  O         48.5480   16.7820   52.7040 O.2   172  SER172     -0.2714
     23  CB        46.5160   14.8270   50.5720 C.3   172  SER172      0.2130
     24  OG        45.6150   15.2520   51.5790 O.3   172  SER172     -0.2179
     25  N         48.4230   17.3490   50.5740 N.am  173  CYS173     -0.1953
     26  CA        48.8000   18.7450   50.8670 C.3   173  CYS173      0.1843
     27  C         48.3700   19.6160   49.6790 C.2   173  CYS173      0.2625
     28  O         47.8200   19.0970   48.7140 O.2   173  CYS173     -0.2714
     29  CB        50.3480   18.7600   51.0750 C.3   173  CYS173      0.0997
     30  SG        51.0720   20.2060   51.8690 S.3   173  CYS173     -0.0797
     31  N         48.6510   20.8890   49.7810 N.am  174  GLN174     -0.1963
     32  CA        48.2960   21.8560   48.7000 C.3   174  GLN174      0.1733
     33  C         48.8980   21.3470   47.3840 C.2   174  GLN174      0.2616
     34  O         50.0410   20.9280   47.2980 O.2   174  GLN174     -0.2715
     35  CB        48.8400   23.2790   49.1040 C.3   174  GLN174      0.0408
     36  CG        49.1270   24.2020   47.8620 C.3   174  GLN174      0.0908
     37  CD        49.1940   25.6830   48.3040 C.2   174  GLN174      0.2608
     38  OE1       49.8300   26.0240   49.2860 O.2   174  GLN174     -0.2717
     39  NE2       48.5620   26.6030   47.6160 N.am  174  GLN174     -0.0878
     40  N         48.0770   21.3980   46.3710 N.am  175  GLY175     -0.1955
     41  CA        48.5150   20.9300   45.0240 C.3   175  GLY175      0.1869
     42  C         47.8480   19.5900   44.7680 C.2   175  GLY175      0.2309
     43  O         47.6910   19.1920   43.6300 O.2   175  GLY175     -0.2863
     44  N         44.8010   18.8980   46.1130 N.3   177  SER177     -0.1217
     45  CA        43.3440   19.2280   46.1410 C.3   177  SER177      0.1889
     46  C         42.6340   18.7340   44.8710 C.2   177  SER177      0.2288
     47  O         43.1670   18.9090   43.7830 O.2   177  SER177     -0.2866
     48  CB        43.1000   20.7590   46.1860 C.3   177  SER177      0.2089
     49  OG        43.4340   21.2790   47.4840 O.3   177  SER177     -0.2183
     50  N         40.3980   14.9710   47.7010 N.3   191  VAL191     -0.1231
     51  CA        41.2920   15.7510   48.6060 C.3   191  VAL191      0.1692
     52  C         40.6290   17.1330   48.7670 C.2   191  VAL191      0.2593
     53  O         40.5050   17.8730   47.8030 O.2   191  VAL191     -0.2718
     54  CB        42.6850   15.8610   47.9440 C.3   191  VAL191      0.0266
     55  CG1       43.6200   16.6930   48.8430 C.3   191  VAL191      0.0020
     56  CG2       43.3010   14.4910   47.7170 C.3   191  VAL191      0.0020
     57  N         40.2380   17.4500   49.9740 N.am  192  SER192     -0.1938
     58  CA        39.5680   18.7510   50.2220 C.3   192  SER192      0.2055
     59  C         40.3510   19.7260   51.1100 C.2   192  SER192      0.2643
     60  O         40.7480   20.7600   50.5930 O.2   192  SER192     -0.2714
     61  CB        38.1350   18.4020   50.8190 C.3   192  SER192      0.2130
     62  OG        37.3850   19.5950   50.9720 O.3   192  SER192     -0.2179
     63  N         40.5480   19.4060   52.3590 N.am  193  TRP193     -0.1959
     64  CA        41.2840   20.3690   53.2010 C.3   193  TRP193      0.1771
     65  C         41.9940   19.7100   54.3390 C.2   193  TRP193      0.2620
     66  O         42.0260   18.4990   54.4110 O.2   193  TRP193     -0.2715
     67  CB        40.3000   21.4310   53.7370 C.3   193  TRP193      0.0590
     68  CG        39.0730   20.9730   54.5650 C.ar  193  TRP193      0.0006
     69  CD1       37.8970   20.4950   54.0600 C.ar  193  TRP193      0.0946
     70  CD2       38.9600   21.0270   55.9200 C.ar  193  TRP193      0.0152
     71  NE1       37.1450   20.2930   55.1370 N.ar  193  TRP193     -0.2442
     72  CE2       37.6930   20.5800   56.3020 C.ar  193  TRP193      0.0810
     73  CE3       39.8750   21.4290   56.9060 C.ar  193  TRP193      0.0012
     74  CZ2       37.3370   20.5320   57.6450 C.ar  193  TRP193      0.0191
     75  CZ3       39.5100   21.3750   58.2550 C.ar  193  TRP193      0.0001
     76  CH2       38.2460   20.9290   58.6250 C.ar  193  TRP193      0.0015
     77  N         42.5550   20.5060   55.2000 N.am  194  GLY194     -0.1940
     78  CA        43.2900   19.9410   56.3830 C.3   194  GLY194      0.2014
     79  C         43.9390   21.1290   57.0820 C.2   194  GLY194      0.2640
     80  O         43.7270   22.2390   56.6440 O.2   194  GLY194     -0.2714
     81  N         44.6880   20.9060   58.1210 N.am  195  SER195     -0.1935
     82  CA        45.3600   22.0270   58.8510 C.3   195  SER195      0.2055
     83  C         46.8610   21.7780   58.5790 C.2   195  SER195      0.2644
     84  O         47.4650   20.8720   59.1470 O.2   195  SER195     -0.2714
     85  CB        45.0670   21.9210   60.3190 C.3   195  SER195      0.2130
     86  OG        45.5070   23.1660   60.8580 O.3   195  SER195     -0.2179
     87  N         47.3930   22.6030   57.7060 N.am  196  GLY196     -0.1939
     88  CA        48.8330   22.4780   57.3270 C.3   196  GLY196      0.2014
     89  C         48.9140   21.1100   56.6300 C.2   196  GLY196      0.2639
     90  O         47.9240   20.6900   56.0350 O.2   196  GLY196     -0.2714
     91  N         50.0470   20.4650   56.7030 N.am  197  CYS197     -0.1967
     92  CA        50.1990   19.1310   56.0700 C.3   197  CYS197      0.1712
     93  C         51.0590   18.2660   56.9480 C.2   197  CYS197      0.2296
     94  O         52.0870   18.7100   57.4110 O.2   197  CYS197     -0.2864
     95  CB        50.8650   19.2630   54.6870 C.3   197  CYS197      0.0983
     96  SG        49.9920   20.3690   53.5700 S.3   197  CYS197     -0.0798
     97  N         46.2490   16.2640   63.1270 N.3   202  LYS202     -0.1231
     98  CA        45.5960   17.1370   62.0940 C.3   202  LYS202      0.1678
     99  C         45.5770   16.3090   60.7750 C.2   202  LYS202      0.2434
    100  O         46.3170   16.6130   59.8490 O.2   202  LYS202     -0.2733
    101  CB        46.4040   18.4300   61.8960 C.3   202  LYS202      0.0284
    102  CG        46.1980   19.3870   63.1150 C.3   202  LYS202      0.0035
    103  CD        44.6960   19.9030   63.1700 C.3   202  LYS202      0.0206
    104  CE        44.5250   20.9440   64.3050 C.3   202  LYS202      0.1093
    105  NZ        43.1190   21.4620   64.3400 N.3   202  LYS202     -0.1314
    106  N         44.7580   15.2850   60.6950 N.am  203  PRO203     -0.2718
    107  CA        44.6870   14.4530   59.4580 C.3   203  PRO203      0.1535
    108  C         44.0030   15.2150   58.2920 C.2   203  PRO203      0.2599
    109  O         43.3800   16.2480   58.4780 O.2   203  PRO203     -0.2715
    110  CB        43.9230   13.2070   59.9140 C.3   203  PRO203      0.0310
    111  CG        42.9680   13.7640   61.0230 C.3   203  PRO203      0.0237
    112  CD        43.8160   14.8030   61.7640 C.3   203  PRO203      0.0939
    113  N         44.1260   14.6850   57.1100 N.am  204  GLY204     -0.1955
    114  CA        43.4950   15.3640   55.9590 C.3   204  GLY204      0.1869
    115  C         41.9800   15.0800   56.0050 C.2   204  GLY204      0.2309
    116  O         41.5720   14.0680   56.5600 O.2   204  GLY204     -0.2863
    117  N         38.5930   14.8050   53.5890 N.3   206  TYR206     -0.1241
    118  CA        38.1330   14.4300   52.2310 C.3   206  TYR206      0.1605
    119  C         36.6230   14.4770   52.0040 C.2   206  TYR206      0.2264
    120  O         35.8720   14.1630   52.9140 O.2   206  TYR206     -0.2867
    121  CB        38.6200   12.9840   51.9550 C.3   206  TYR206      0.0534
    122  CG        40.1370   12.9160   52.1750 C.ar  206  TYR206     -0.0201
    123  CD1       40.9860   13.1380   51.1030 C.ar  206  TYR206     -0.0009
    124  CD2       40.7100   12.7000   53.4260 C.ar  206  TYR206     -0.0009
    125  CE1       42.3470   13.1600   51.2660 C.ar  206  TYR206      0.0417
    126  CE2       42.0900   12.7230   53.5810 C.ar  206  TYR206      0.0417
    127  CZ        42.9130   12.9620   52.4960 C.ar  206  TYR206      0.1957
    128  OH        44.2830   13.0540   52.5500 O.3   206  TYR206     -0.2866
@<TRIPOS>BOND
     1    43    42    2
     2    47    46    2
     3     3     4    2
     4     3     2    1
     5    42    41    1
     6    46    45    1
     7    41    40    1
     8     1     2    1
     9     2     5    1
    10    44    45    1
    11    45    48    1
    12    48    49    1
    13    40    33   am
    14     5     6    1
    15     8     6   ar
    16     8    10   ar
    17     6     7   ar
    18    34    33    2
    19    33    32    1
    20    10     9   ar
    21    39    37   am
    22    50    51    1
    23    56    54    1
    24     7     9   ar
    25    53    52    2
    26    36    37    1
    27    36    35    1
    28    54    51    1
    29    54    55    1
    30    37    38    2
    31    51    52    1
    32    32    35    1
    33    32    31    1
    34    28    27    2
    35    52    57   am
    36    27    31   am
    37    27    26    1
    38    57    58    1
    39    58    61    1
    40    58    59    1
    41    23    20    1
    42    23    24    1
    43    25    26    1
    44    25    21   am
    45    60    59    2
    46    61    62    1
    47    26    29    1
    48    29    30    1
    49   123   125   ar
    50   123   122   ar
    51    59    63   am
    52    20    21    1
    53    20    19    1
    54   125   127   ar
    55    21    22    2
    56    30    96    1
    57   121   122    1
    58   121   118    1
    59   119   118    1
    60   119   120    2
    61   122   124   ar
    62   118   117    1
    63    14    13    2
    64    63    64    1
    65   127   128    1
    66   127   126   ar
    67    19    13   am
    68    13    12    1
    69    64    67    1
    70    64    65    1
    71   124   126   ar
    72    96    95    1
    73    67    68    1
    74    69    68   ar
    75    69    71   ar
    76    65    66    2
    77    65    77   am
    78    12    11    1
    79    12    15    1
    80    68    70   ar
    81    95    92    1
    82    18    16   ar
    83    71    72   ar
    84    77    78    1
    85    15    16    1
    86    16    17   ar
    87    70    72   ar
    88    70    73   ar
    89   114   115    1
    90   114   113    1
    91   115   116    2
    92    90    89    2
    93    92    91    1
    94    92    93    1
    95    72    74   ar
    96    78    79    1
    97    89    91   am
    98    89    88    1
    99    80    79    2
   100    73    75   ar
   101    93    94    2
   102    79    81   am
   103   113   108   am
   104    88    87    1
   105    74    76   ar
   106    87    83   am
   107    81    82    1
   108    75    76   ar
   109   108   109    2
   110   108   107    1
   111    83    82    1
   112    83    84    2
   113    82    85    1
   114   107   110    1
   115   107   106    1
   116   100    99    2
   117   110   111    1
   118    85    86    1
   119   106    99   am
   120   106   112    1
   121    99    98    1
   122   111   112    1
   123   101    98    1
   124   101   102    1
   125    98    97    1
   126   102   103    1
   127   103   104    1
   128   104   105    1
