@<TRIPOS>MOLECULE
tmp/1gi5A00.pdb
 134 132 0 0 0
SMALL
GASTEIGER

@<TRIPOS>ATOM
      1  N         49.4990    4.7430   34.2430 N.3    25  CYS25      -0.1235
      2  CA        48.9820    5.0120   32.8830 C.3    25  CYS25       0.1677
      3  C         49.9790    5.7810   32.0570 C.2    25  CYS25       0.2270
      4  O         50.9540    6.3030   32.5750 O.2    25  CYS25      -0.2867
      5  CB        47.6890    5.8230   32.9630 C.3    25  CYS25       0.0956
      6  SG        46.1520    4.9510   33.1300 S.3    25  CYS25      -0.0801
      7  N         39.7000    7.2390   31.9080 N.3    40  HIS40      -0.1241
      8  CA        39.6870    6.1460   32.8960 C.3    40  HIS40       0.1621
      9  C         41.0450    6.0890   33.6360 C.2    40  HIS40       0.2264
     10  O         41.2450    5.2070   34.4480 O.2    40  HIS40      -0.2867
     11  CB        39.3770    4.7860   32.2120 C.3    40  HIS40       0.0745
     12  CG        40.4780    4.0600   31.4200 C.ar   40  HIS40       0.0817
     13  ND1       40.6310    3.9820   30.1190 N.ar   40  HIS40      -0.2268
     14  CD2       41.5180    3.3320   31.9710 C.ar   40  HIS40       0.1154
     15  CE1       41.6880    3.2670   29.8650 C.ar   40  HIS40       0.1986
     16  NE2       42.2360    2.8580   30.9740 N.ar   40  HIS40      -0.2212
     17  N         49.8160   -6.1660   20.5390 N.3   171  ASP171     -0.1225
     18  CA        48.6880   -5.2580   20.9550 C.3   171  ASP171      0.1805
     19  C         49.1820   -4.3950   22.1400 C.2   171  ASP171      0.2598
     20  O         50.3060   -4.5810   22.6110 O.2   171  ASP171     -0.2718
     21  CB        47.5320   -6.1490   21.4330 C.3   171  ASP171      0.1424
     22  CG        46.2230   -5.4620   21.7460 C.2   171  ASP171      0.3668
     23  OD1       45.3910   -6.1110   22.3360 O.co2 171  ASP171     -0.2456
     24  OD2       45.9730   -4.3120   21.4350 O.co2 171  ASP171     -0.2456
     25  N         48.3780   -3.4710   22.6120 N.am  172  SER172     -0.1938
     26  CA        48.7980   -2.6670   23.7540 C.3   172  SER172      0.2055
     27  C         48.1130   -3.5320   24.8340 C.2   172  SER172      0.2643
     28  O         47.3780   -4.4610   24.5200 O.2   172  SER172     -0.2714
     29  CB        48.2440   -1.1970   23.6060 C.3   172  SER172      0.2130
     30  OG        46.8610   -1.2600   23.2720 O.3   172  SER172     -0.2179
     31  N         48.3200   -3.2620   26.0890 N.am  173  CYS173     -0.1953
     32  CA        47.7300   -4.0420   27.1630 C.3   173  CYS173      0.1843
     33  C         47.6140   -3.1610   28.3750 C.2   173  CYS173      0.2625
     34  O         47.8500   -1.9570   28.2550 O.2   173  CYS173     -0.2714
     35  CB        48.6490   -5.2020   27.3450 C.3   173  CYS173      0.0997
     36  SG        47.9610   -6.5930   28.2630 S.3   173  CYS173     -0.0797
     37  N         47.2760   -3.7290   29.5080 N.am  174  GLN174     -0.1963
     38  CA        47.1260   -2.9770   30.7870 C.3   174  GLN174      0.1733
     39  C         48.4230   -2.2390   31.1450 C.2   174  GLN174      0.2616
     40  O         49.5050   -2.7880   31.0170 O.2   174  GLN174     -0.2715
     41  CB        46.7310   -3.9910   31.8810 C.3   174  GLN174      0.0408
     42  CG        46.6280   -3.3520   33.2740 C.3   174  GLN174      0.0908
     43  CD        45.9970   -4.3740   34.2390 C.2   174  GLN174      0.2608
     44  OE1       46.2700   -5.5610   34.1710 O.2   174  GLN174     -0.2717
     45  NE2       45.1640   -3.9770   35.1510 N.am  174  GLN174     -0.0878
     46  N         48.3590   -1.0090   31.5890 N.am  175  GLY175     -0.1955
     47  CA        49.5800   -0.2400   31.9470 C.3   175  GLY175      0.1869
     48  C         49.8480    0.7410   30.7980 C.2   175  GLY175      0.2309
     49  O         50.4720    1.7720   30.9850 O.2   175  GLY175     -0.2863
     50  N         47.2690    2.0420   28.8900 N.3   177  SER177     -0.1217
     51  CA        46.1150    2.9840   28.8670 C.3   177  SER177      0.1889
     52  C         46.5020    4.4380   28.9890 C.2   177  SER177      0.2288
     53  O         47.3840    4.7050   29.7820 O.2   177  SER177     -0.2866
     54  CB        45.1350    2.7290   30.0530 C.3   177  SER177      0.2089
     55  OG        44.3000    1.6190   29.7000 O.3   177  SER177     -0.2183
     56  N         45.3240    5.1360   24.0260 N.3   191  VAL191     -0.1231
     57  CA        45.0780    3.7150   24.3420 C.3   191  VAL191      0.1692
     58  C         43.8260    3.7330   25.2760 C.2   191  VAL191      0.2593
     59  O         43.8420    4.4060   26.3020 O.2   191  VAL191     -0.2718
     60  CB        46.3540    3.1640   25.0450 C.3   191  VAL191      0.0266
     61  CG1       46.1390    1.6650   25.3090 C.3   191  VAL191      0.0020
     62  CG2       47.6330    3.3570   24.1910 C.3   191  VAL191      0.0020
     63  N         42.7850    3.0170   24.9450 N.am  192  SER192     -0.1938
     64  CA        41.5740    3.0160   25.8050 C.3   192  SER192      0.2055
     65  C         41.2610    1.5920   26.2840 C.2   192  SER192      0.2643
     66  O         41.4560    1.3310   27.4680 O.2   192  SER192     -0.2714
     67  CB        40.4200    3.6200   24.9550 C.3   192  SER192      0.2130
     68  OG        39.2510    3.8300   25.7430 O.3   192  SER192     -0.2179
     69  N         40.8170    0.6660   25.4660 N.am  193  TRP193     -0.1959
     70  CA        40.5060   -0.6910   25.9860 C.3   193  TRP193      0.1771
     71  C         40.7040   -1.8010   25.0060 C.2   193  TRP193      0.2620
     72  O         41.2130   -1.5740   23.9200 O.2   193  TRP193     -0.2715
     73  CB        39.0720   -0.6800   26.4460 C.3   193  TRP193      0.0590
     74  CG        38.0210   -0.2830   25.3710 C.ar  193  TRP193      0.0006
     75  CD1       37.6520    0.9750   24.9370 C.ar  193  TRP193      0.0946
     76  CD2       37.2160   -1.1690   24.7310 C.ar  193  TRP193      0.0152
     77  NE1       36.6580    0.8450   24.0820 N.ar  193  TRP193     -0.2442
     78  CE2       36.3530   -0.4230   23.9210 C.ar  193  TRP193      0.0810
     79  CE3       37.1560   -2.5580   24.7650 C.ar  193  TRP193      0.0012
     80  CZ2       35.4050   -1.0990   23.1420 C.ar  193  TRP193      0.0191
     81  CZ3       36.2170   -3.2390   23.9900 C.ar  193  TRP193      0.0001
     82  CH2       35.3450   -2.5040   23.1800 C.ar  193  TRP193      0.0015
     83  N         40.3300   -2.9980   25.3480 N.am  194  GLY194     -0.1940
     84  CA        40.4790   -4.1680   24.4370 C.3   194  GLY194      0.2014
     85  C         39.9330   -5.3640   25.1860 C.2   194  GLY194      0.2640
     86  O         39.6250   -5.2000   26.3480 O.2   194  GLY194     -0.2714
     87  N         39.7890   -6.5260   24.6280 N.am  195  SER195     -0.1935
     88  CA        39.2490   -7.7150   25.3780 C.3   195  SER195      0.2055
     89  C         40.5040   -8.5300   25.5640 C.2   195  SER195      0.2644
     90  O         40.9610   -9.1680   24.6230 O.2   195  SER195     -0.2714
     91  CB        38.2300   -8.5210   24.5500 C.3   195  SER195      0.2130
     92  OG        38.2260   -9.8320   25.1210 O.3   195  SER195     -0.2179
     93  N         41.0830   -8.5040   26.7310 N.am  196  GLY196     -0.1939
     94  CA        42.3290   -9.2850   26.9600 C.3   196  GLY196      0.2014
     95  C         43.3740   -8.4960   26.2160 C.2   196  GLY196      0.2639
     96  O         43.1650   -7.3040   25.9770 O.2   196  GLY196     -0.2714
     97  N         44.4640   -9.1110   25.8660 N.am  197  CYS197     -0.1967
     98  CA        45.5310   -8.4360   25.1240 C.3   197  CYS197      0.1712
     99  C         46.0470   -9.3920   24.0860 C.2   197  CYS197      0.2296
    100  O         46.2720  -10.5590   24.3680 O.2   197  CYS197     -0.2864
    101  CB        46.6660   -8.0580   26.0470 C.3   197  CYS197      0.0983
    102  SG        46.1890   -6.9370   27.3820 S.3   197  CYS197     -0.0798
    103  N         40.4980   -9.7780   18.4850 N.3   202  LYS202     -0.1245
    104  CA        40.1210   -8.7710   19.5430 C.3   202  LYS202      0.1561
    105  C         41.1670   -7.6540   19.4880 C.2   202  LYS202      0.2260
    106  O         42.0620   -7.5970   20.3230 O.2   202  LYS202     -0.2867
    107  CB        40.1370   -9.4140   20.9310 C.3   202  LYS202      0.0271
    108  CG        39.0800  -10.5160   21.0700 C.3   202  LYS202      0.0035
    109  CD        37.6940   -9.8770   20.9040 C.3   202  LYS202      0.0206
    110  CE        36.5870  -10.9090   21.1060 C.3   202  LYS202      0.1093
    111  NZ        35.2680  -10.2310   20.9540 N.3   202  LYS202     -0.1314
    112  N         42.8890   -3.7450   19.7000 N.3   204  GLY204     -0.1210
    113  CA        42.8100   -2.7110   20.7570 C.3   204  GLY204      0.1956
    114  C         41.8760   -1.6270   20.2760 C.2   204  GLY204      0.2612
    115  O         41.7410   -1.4230   19.0900 O.2   204  GLY204     -0.2717
    116  N         41.2250   -0.9280   21.1550 N.am  205  VAL205     -0.1965
    117  CA        40.2980    0.1480   20.7830 C.3   205  VAL205      0.1727
    118  C         40.9550    1.4040   21.3430 C.2   205  VAL205      0.2616
    119  O         41.5100    1.3990   22.4480 O.2   205  VAL205     -0.2715
    120  CB        38.9420   -0.2020   21.4080 C.3   205  VAL205      0.0290
    121  CG1       37.9800    0.7730   20.8640 C.3   205  VAL205      0.0023
    122  CG2       38.5310   -1.6210   20.9780 C.3   205  VAL205      0.0023
    123  N         40.8840    2.4600   20.5920 N.am  206  TYR206     -0.1974
    124  CA        41.4970    3.7600   20.9470 C.3   206  TYR206      0.1639
    125  C         40.5770    4.9320   20.8560 C.2   206  TYR206      0.2290
    126  O         39.6410    4.9100   20.0790 O.2   206  TYR206     -0.2864
    127  CB        42.7330    3.9550   19.9780 C.3   206  TYR206      0.0560
    128  CG        43.7000    2.7910   20.1160 C.ar  206  TYR206     -0.0198
    129  CD1       44.7530    2.8660   20.9870 C.ar  206  TYR206     -0.0009
    130  CD2       43.5160    1.6200   19.4120 C.ar  206  TYR206     -0.0009
    131  CE1       45.6050    1.7890   21.1600 C.ar  206  TYR206      0.0417
    132  CE2       44.3610    0.5460   19.5840 C.ar  206  TYR206      0.0417
    133  CZ        45.4140    0.6240   20.4690 C.ar  206  TYR206      0.1957
    134  OH        46.2180   -0.4620   20.6590 O.3   206  TYR206     -0.2866
@<TRIPOS>BOND
     1   103   104    1
     2   115   114    2
     3   130   132   ar
     4   130   128   ar
     5   105   104    1
     6   105   106    2
     7   104   107    1
     8   132   133   ar
     9   112   113    1
    10   127   128    1
    11   127   124    1
    12   126   125    2
    13   128   129   ar
    14   114   113    1
    15   114   116   am
    16   133   134    1
    17   133   131   ar
    18    17    18    1
    19   123   124    1
    20   123   118   am
    21   117   116    1
    22   117   118    1
    23   117   120    1
    24   125   124    1
    25   121   120    1
    26   109   108    1
    27   109   110    1
    28   107   108    1
    29   111   110    1
    30    18    21    1
    31    18    19    1
    32   122   120    1
    33   129   131   ar
    34   118   119    2
    35    21    22    1
    36    24    22   ar
    37    22    23   ar
    38    19    20    2
    39    19    25   am
    40    25    26    1
    41    80    82   ar
    42    80    78   ar
    43    82    81   ar
    44    30    29    1
    45    29    26    1
    46    26    27    1
    47    72    71    2
    48    78    77   ar
    49    78    76   ar
    50    81    79   ar
    51    56    57    1
    52    77    75   ar
    53    99   100    2
    54    99    98    1
    55    62    60    1
    56    57    60    1
    57    57    58    1
    58    84    85    1
    59    84    83    1
    60    28    27    2
    61    91    92    1
    62    91    88    1
    63    90    89    2
    64    87    85   am
    65    87    88    1
    66    76    79   ar
    67    76    74   ar
    68    27    31   am
    69    75    74   ar
    70    63    58   am
    71    63    64    1
    72    67    68    1
    73    67    64    1
    74    71    83   am
    75    71    70    1
    76    60    61    1
    77    98    97    1
    78    98   101    1
    79    85    86    2
    80    58    59    2
    81    74    73    1
    82    88    89    1
    83    69    70    1
    84    69    65   am
    85    89    93   am
    86    64    65    1
    87    97    95   am
    88    96    95    2
    89    70    73    1
    90   101   102    1
    91    31    32    1
    92    95    94    1
    93    65    66    2
    94    93    94    1
    95    32    35    1
    96    32    33    1
    97    35    36    1
    98   102    36    1
    99    34    33    2
   100    33    37   am
   101    51    50    1
   102    51    52    1
   103    51    54    1
   104    52    53    2
   105    37    38    1
   106    55    54    1
   107    15    13   ar
   108    15    16   ar
   109    13    12   ar
   110    38    39    1
   111    38    41    1
   112    48    49    2
   113    48    47    1
   114    16    14   ar
   115    40    39    2
   116    39    46   am
   117    12    14   ar
   118    12    11    1
   119    46    47    1
   120    41    42    1
   121     7     8    1
   122     3     4    2
   123     3     2    1
   124    11     8    1
   125     2     5    1
   126     2     1    1
   127     8     9    1
   128     5     6    1
   129    42    43    1
   130     9    10    2
   131    44    43    2
   132    43    45   am
