@<TRIPOS>MOLECULE
tmp/1gi6A00.pdb
 141 141 0 0 0
SMALL
GASTEIGER

@<TRIPOS>ATOM
      1  N         49.4790    4.9400   34.4990 N.3    25  CYS25      -0.1235
      2  CA        48.9230    5.2220   33.1530 C.3    25  CYS25       0.1677
      3  C         49.9200    6.0070   32.3950 C.2    25  CYS25       0.2270
      4  O         50.8210    6.5640   32.9930 O.2    25  CYS25      -0.2867
      5  CB        47.5950    6.0260   33.2820 C.3    25  CYS25       0.0956
      6  SG        46.0750    5.0680   33.4610 S.3    25  CYS25      -0.0801
      7  N         39.6200    7.3480   32.1120 N.3    40  HIS40      -0.1241
      8  CA        39.6120    6.2980   33.1640 C.3    40  HIS40       0.1621
      9  C         40.9100    6.2690   33.9470 C.2    40  HIS40       0.2264
     10  O         41.0410    5.5050   34.8830 O.2    40  HIS40      -0.2867
     11  CB        39.3190    4.8940   32.5380 C.3    40  HIS40       0.0745
     12  CG        40.4200    4.1550   31.7450 C.ar   40  HIS40       0.0817
     13  ND1       40.5640    4.0880   30.4470 N.ar   40  HIS40      -0.2268
     14  CD2       41.4620    3.4130   32.2720 C.ar   40  HIS40       0.1154
     15  CE1       41.6110    3.3510   30.1750 C.ar   40  HIS40       0.1986
     16  NE2       42.1630    2.9200   31.2770 N.ar   40  HIS40      -0.2212
     17  N         49.8750   -6.2530   21.1560 N.3   171  ASP171     -0.1225
     18  CA        48.7380   -5.3580   21.5510 C.3   171  ASP171      0.1805
     19  C         49.2010   -4.4420   22.6750 C.2   171  ASP171      0.2598
     20  O         50.3110   -4.6140   23.1740 O.2   171  ASP171     -0.2718
     21  CB        47.6040   -6.2250   22.0800 C.3   171  ASP171      0.1424
     22  CG        46.2560   -5.5360   22.2940 C.2   171  ASP171      0.3668
     23  OD1       45.4000   -6.1750   22.8990 O.co2 171  ASP171     -0.2456
     24  OD2       46.0110   -4.4000   21.8950 O.co2 171  ASP171     -0.2456
     25  N         48.3960   -3.4820   23.0740 N.am  172  SER172     -0.1938
     26  CA        48.7950   -2.6080   24.1900 C.3   172  SER172      0.2055
     27  C         48.1020   -3.4120   25.3460 C.2   172  SER172      0.2643
     28  O         47.3480   -4.3480   25.0820 O.2   172  SER172     -0.2714
     29  CB        48.2210   -1.1390   24.0100 C.3   172  SER172      0.2130
     30  OG        46.8720   -1.2460   23.5960 O.3   172  SER172     -0.2179
     31  N         48.3190   -3.0940   26.5970 N.am  173  CYS173     -0.1953
     32  CA        47.7060   -3.8320   27.7160 C.3   173  CYS173      0.1843
     33  C         47.6000   -2.9130   28.9350 C.2   173  CYS173      0.2625
     34  O         47.9540   -1.7420   28.8680 O.2   173  CYS173     -0.2714
     35  CB        48.5920   -5.0610   28.0080 C.3   173  CYS173      0.0997
     36  SG        47.8920   -6.4140   28.9920 S.3   173  CYS173     -0.0797
     37  N         47.1280   -3.4140   30.0370 N.am  174  GLN174     -0.1963
     38  CA        46.9680   -2.6120   31.3080 C.3   174  GLN174      0.1733
     39  C         48.2900   -1.9220   31.6420 C.2   174  GLN174      0.2616
     40  O         49.3460   -2.5430   31.6000 O.2   174  GLN174     -0.2715
     41  CB        46.5140   -3.6030   32.4160 C.3   174  GLN174      0.0408
     42  CG        46.6800   -3.0700   33.8490 C.3   174  GLN174      0.0908
     43  CD        46.2010   -4.1440   34.8340 C.2   174  GLN174      0.2608
     44  OE1       46.1980   -5.3230   34.5310 O.2   174  GLN174     -0.2717
     45  NE2       45.7860   -3.8150   36.0060 N.am  174  GLN174     -0.0878
     46  N         48.2470   -0.6470   31.9620 N.am  175  GLY175     -0.1955
     47  CA        49.4860    0.1000   32.2950 C.3   175  GLY175      0.1869
     48  C         49.7940    0.9730   31.1070 C.2   175  GLY175      0.2309
     49  O         50.4940    1.9570   31.2520 O.2   175  GLY175     -0.2863
     50  N         47.2520    2.1980   29.2160 N.3   177  SER177     -0.1217
     51  CA        46.0910    3.1280   29.1550 C.3   177  SER177      0.1889
     52  C         46.4940    4.6090   29.2280 C.2   177  SER177      0.2288
     53  O         47.3850    4.9060   30.0070 O.2   177  SER177     -0.2866
     54  CB        45.1380    2.9280   30.3340 C.3   177  SER177      0.2089
     55  OG        44.4400    1.7000   30.1240 O.3   177  SER177     -0.2183
     56  N         45.3330    5.0630   24.2170 N.3   191  VAL191     -0.1231
     57  CA        45.1050    3.6360   24.5820 C.3   191  VAL191      0.1692
     58  C         43.8740    3.6710   25.5160 C.2   191  VAL191      0.2593
     59  O         43.9130    4.3270   26.5440 O.2   191  VAL191     -0.2718
     60  CB        46.3840    3.0970   25.3050 C.3   191  VAL191      0.0266
     61  CG1       46.1590    1.6440   25.6960 C.3   191  VAL191      0.0020
     62  CG2       47.6570    3.2050   24.4250 C.3   191  VAL191      0.0020
     63  N         42.8100    2.9820   25.2030 N.am  192  SER192     -0.1938
     64  CA        41.5870    2.9830   26.0440 C.3   192  SER192      0.2055
     65  C         41.2230    1.5960   26.5500 C.2   192  SER192      0.2643
     66  O         41.3510    1.3700   27.7450 O.2   192  SER192     -0.2714
     67  CB        40.4430    3.6020   25.1830 C.3   192  SER192      0.2130
     68  OG        39.2740    3.7660   25.9720 O.3   192  SER192     -0.2179
     69  N         40.7850    0.6620   25.7400 N.am  193  TRP193     -0.1959
     70  CA        40.4360   -0.6700   26.3060 C.3   193  TRP193      0.1771
     71  C         40.6150   -1.7840   25.3220 C.2   193  TRP193      0.2620
     72  O         41.1110   -1.5640   24.2260 O.2   193  TRP193     -0.2715
     73  CB        38.9690   -0.6280   26.7920 C.3   193  TRP193      0.0590
     74  CG        37.9410   -0.2820   25.7060 C.ar  193  TRP193      0.0006
     75  CD1       37.6300    0.9550   25.2300 C.ar  193  TRP193      0.0946
     76  CD2       37.1290   -1.1760   25.0720 C.ar  193  TRP193      0.0152
     77  NE1       36.6720    0.8170   24.3500 N.ar  193  TRP193     -0.2442
     78  CE2       36.3290   -0.4330   24.2080 C.ar  193  TRP193      0.0810
     79  CE3       36.9900   -2.5590   25.1350 C.ar  193  TRP193      0.0012
     80  CZ2       35.3850   -1.0890   23.4000 C.ar  193  TRP193      0.0191
     81  CZ3       36.0490   -3.2150   24.3280 C.ar  193  TRP193      0.0001
     82  CH2       35.2510   -2.4790   23.4670 C.ar  193  TRP193      0.0015
     83  N         40.2490   -2.9730   25.6910 N.am  194  GLY194     -0.1940
     84  CA        40.3600   -4.1530   24.8050 C.3   194  GLY194      0.2014
     85  C         39.9070   -5.3580   25.6300 C.2   194  GLY194      0.2640
     86  O         39.6740   -5.1970   26.8100 O.2   194  GLY194     -0.2714
     87  N         39.7720   -6.5300   25.0660 N.am  195  SER195     -0.1935
     88  CA        39.3380   -7.7450   25.8420 C.3   195  SER195      0.2055
     89  C         40.6310   -8.5180   26.0540 C.2   195  SER195      0.2644
     90  O         41.1940   -9.0400   25.1020 O.2   195  SER195     -0.2714
     91  CB        38.3580   -8.5910   25.0300 C.3   195  SER195      0.2130
     92  OG        37.2080   -7.7640   24.8880 O.3   195  SER195     -0.2179
     93  N         41.1050   -8.5660   27.2710 N.am  196  GLY196     -0.1939
     94  CA        42.3660   -9.2880   27.5960 C.3   196  GLY196      0.2014
     95  C         43.4360   -8.4800   26.8630 C.2   196  GLY196      0.2639
     96  O         43.2320   -7.2980   26.6170 O.2   196  GLY196     -0.2714
     97  N         44.5400   -9.0460   26.5370 N.am  197  CYS197     -0.1967
     98  CA        45.5850   -8.3270   25.8170 C.3   197  CYS197      0.1712
     99  C         46.1630   -9.3220   24.8380 C.2   197  CYS197      0.2296
    100  O         46.4880  -10.4310   25.2350 O.2   197  CYS197     -0.2864
    101  CB        46.6760   -7.8810   26.7500 C.3   197  CYS197      0.0983
    102  SG        46.1200   -6.8010   28.0860 S.3   197  CYS197     -0.0798
    103  N         40.5570   -9.8840   18.9790 N.3   202  LYS202     -0.1231
    104  CA        40.1410   -8.8980   20.0270 C.3   202  LYS202      0.1678
    105  C         41.2330   -7.8170   20.0020 C.2   202  LYS202      0.2434
    106  O         42.0870   -7.7550   20.8850 O.2   202  LYS202     -0.2733
    107  CB        40.0670   -9.5910   21.4200 C.3   202  LYS202      0.0284
    108  CG        38.9280  -10.6470   21.4440 C.3   202  LYS202      0.0035
    109  CD        37.5390   -9.9540   21.2560 C.3   202  LYS202      0.0206
    110  CE        36.4350  -11.0210   21.1890 C.3   202  LYS202      0.1093
    111  NZ        35.1230  -10.3550   20.9630 N.3   202  LYS202     -0.1314
    112  N         41.2460   -6.9750   18.9990 N.am  203  PRO203     -0.2718
    113  CA        42.2180   -5.8540   18.8850 C.3   203  PRO203      0.1535
    114  C         42.0660   -4.7600   19.9700 C.2   203  PRO203      0.2599
    115  O         41.0720   -4.7140   20.6700 O.2   203  PRO203     -0.2715
    116  CB        41.9890   -5.3430   17.4550 C.3   203  PRO203      0.0310
    117  CG        40.4950   -5.6240   17.2290 C.3   203  PRO203      0.0237
    118  CD        40.3170   -7.0120   17.8460 C.3   203  PRO203      0.0939
    119  N         43.0190   -3.8860   20.1160 N.am  204  GLY204     -0.1941
    120  CA        42.8920   -2.8260   21.1420 C.3   204  GLY204      0.2014
    121  C         41.9610   -1.7720   20.5710 C.2   204  GLY204      0.2639
    122  O         41.8830   -1.6140   19.3580 O.2   204  GLY204     -0.2714
    123  N         41.2770   -1.0720   21.4370 N.am  205  VAL205     -0.1963
    124  CA        40.3350   -0.0040   21.0690 C.3   205  VAL205      0.1727
    125  C         40.9880    1.2410   21.6500 C.2   205  VAL205      0.2616
    126  O         41.5250    1.3030   22.7620 O.2   205  VAL205     -0.2715
    127  CB        38.9590   -0.2460   21.6850 C.3   205  VAL205      0.0290
    128  CG1       38.0060    0.7320   21.0740 C.3   205  VAL205      0.0023
    129  CG2       38.4590   -1.6470   21.2880 C.3   205  VAL205      0.0023
    130  N         40.9210    2.2470   20.8530 N.am  206  TYR206     -0.1974
    131  CA        41.4990    3.5850   21.1270 C.3   206  TYR206      0.1639
    132  C         40.5600    4.7510   20.9740 C.2   206  TYR206      0.2290
    133  O         39.6530    4.7090   20.1540 O.2   206  TYR206     -0.2864
    134  CB        42.7210    3.7510   20.1460 C.3   206  TYR206      0.0560
    135  CG        43.6920    2.6090   20.3500 C.ar  206  TYR206     -0.0198
    136  CD1       44.7290    2.7580   21.2450 C.ar  206  TYR206     -0.0009
    137  CD2       43.5330    1.4050   19.6840 C.ar  206  TYR206     -0.0009
    138  CE1       45.5950    1.7250   21.4810 C.ar  206  TYR206      0.0417
    139  CE2       44.4040    0.3610   19.9190 C.ar  206  TYR206      0.0417
    140  CZ        45.4420    0.5200   20.8240 C.ar  206  TYR206      0.1957
    141  OH        46.3110   -0.5160   21.0680 O.3   206  TYR206     -0.2866
@<TRIPOS>BOND
     1   117   116    1
     2   117   118    1
     3   116   113    1
     4   118   112    1
     5   113   112    1
     6   113   114    1
     7   103   104    1
     8   112   105   am
     9   122   121    2
    10   137   139   ar
    11   137   135   ar
    12   139   140   ar
    13   114   119   am
    14   114   115    2
    15   105   104    1
    16   105   106    2
    17   104   107    1
    18   119   120    1
    19   134   135    1
    20   134   131    1
    21   133   132    2
    22   135   136   ar
    23   121   120    1
    24   121   123   am
    25   140   141    1
    26   140   138   ar
    27   130   131    1
    28   130   125   am
    29   111   110    1
    30   132   131    1
    31   124   123    1
    32   124   125    1
    33   124   127    1
    34   128   127    1
    35    17    18    1
    36   110   109    1
    37   136   138   ar
    38   109   108    1
    39   129   127    1
    40   107   108    1
    41    18    21    1
    42    18    19    1
    43   125   126    2
    44    24    22   ar
    45    21    22    1
    46    22    23   ar
    47    19    25   am
    48    19    20    2
    49    25    26    1
    50    80    82   ar
    51    80    78   ar
    52    82    81   ar
    53    30    29    1
    54    29    26    1
    55    26    27    1
    56    78    77   ar
    57    78    76   ar
    58    56    57    1
    59    72    71    2
    60    81    79   ar
    61    77    75   ar
    62    62    60    1
    63    57    60    1
    64    57    58    1
    65    84    85    1
    66    84    83    1
    67    99   100    2
    68    99    98    1
    69    92    91    1
    70    91    88    1
    71    87    85   am
    72    87    88    1
    73    76    79   ar
    74    76    74   ar
    75    28    27    2
    76    90    89    2
    77    67    68    1
    78    67    64    1
    79    63    58   am
    80    63    64    1
    81    75    74   ar
    82    60    61    1
    83    71    83   am
    84    71    70    1
    85    27    31   am
    86    58    59    2
    87    85    86    2
    88    74    73    1
    89    69    70    1
    90    69    65   am
    91    98    97    1
    92    98   101    1
    93    88    89    1
    94    64    65    1
    95    89    93   am
    96    70    73    1
    97    97    95   am
    98    65    66    2
    99    31    32    1
   100    96    95    2
   101   101   102    1
   102    95    94    1
   103    93    94    1
   104    32    35    1
   105    32    33    1
   106    35    36    1
   107   102    36    1
   108    34    33    2
   109    33    37   am
   110    51    50    1
   111    51    52    1
   112    51    54    1
   113    52    53    2
   114    37    38    1
   115    55    54    1
   116    15    13   ar
   117    15    16   ar
   118    13    12   ar
   119    48    49    2
   120    48    47    1
   121    16    14   ar
   122    38    39    1
   123    38    41    1
   124    40    39    2
   125    39    46   am
   126    12    14   ar
   127    12    11    1
   128    46    47    1
   129     7     8    1
   130     3     4    2
   131     3     2    1
   132    41    42    1
   133    11     8    1
   134     2     5    1
   135     2     1    1
   136     8     9    1
   137     5     6    1
   138    42    43    1
   139     9    10    2
   140    44    43    2
   141    43    45   am
