@<TRIPOS>MOLECULE
tmp/1gi7B00.pdb
 150 151 0 0 0
SMALL
GASTEIGER

@<TRIPOS>ATOM
      1  N          9.2770    8.7840   14.6330 N.3    46  HIS46      -0.1241
      2  CA         9.2070    9.5890   15.8950 C.3    46  HIS46       0.1621
      3  C         10.5640    9.9770   16.4230 C.2    46  HIS46       0.2264
      4  O         10.6740   10.8740   17.2410 O.2    46  HIS46      -0.2867
      5  CB         8.3980    8.8010   17.0080 C.3    46  HIS46       0.0745
      6  CG         9.1540    7.7830   17.8870 C.ar   46  HIS46       0.0817
      7  ND1        8.8660    6.5180   18.0580 N.ar   46  HIS46      -0.2268
      8  CD2       10.2600    8.0450   18.6640 C.ar   46  HIS46       0.1154
      9  CE1        9.7410    6.0260   18.8920 C.ar   46  HIS46       0.1986
     10  NE2       10.5910    6.9400   19.2660 N.ar   46  HIS46      -0.2212
     11  N          2.0450    5.4410   18.0120 N.3    94  HIS94      -0.1241
     12  CA         2.7470    6.1300   16.9020 C.3    94  HIS94       0.1621
     13  C          2.2140    5.2890   15.7440 C.2    94  HIS94       0.2264
     14  O          2.3510    4.0770   15.7950 O.2    94  HIS94      -0.2867
     15  CB         4.2930    5.9670   16.9890 C.3    94  HIS94       0.0745
     16  CG         4.8780    6.7870   18.1450 C.ar   94  HIS94       0.0817
     17  ND1        4.8190    8.0860   18.2980 N.ar   94  HIS94      -0.2268
     18  CD2        5.5640    6.2790   19.2240 C.ar   94  HIS94       0.1154
     19  CE1        5.4360    8.3750   19.4220 C.ar   94  HIS94       0.1986
     20  NE2        5.8930    7.2880   19.9920 N.ar   94  HIS94      -0.2212
     21  N         12.4230   -6.3150   28.2860 N.3   192  ASP192     -0.1225
     22  CA        11.6330   -5.5690   27.2490 C.3   192  ASP192      0.1805
     23  C         12.5010   -4.4300   26.7140 C.2   192  ASP192      0.2598
     24  O         13.6170   -4.2250   27.1720 O.2   192  ASP192     -0.2718
     25  CB        10.3330   -4.9700   27.9470 C.3   192  ASP192      0.1424
     26  CG         9.2960   -4.2330   27.0500 C.2   192  ASP192      0.3668
     27  OD1        9.2920   -4.4220   25.8590 O.co2 192  ASP192     -0.2456
     28  OD2        8.5190   -3.4930   27.6180 O.co2 192  ASP192     -0.2456
     29  N         11.9570   -3.7250   25.7590 N.am  193  SER193     -0.1938
     30  CA        12.6540   -2.5880   25.1500 C.3   193  SER193      0.2055
     31  C         12.2020   -1.4220   26.0520 C.2   193  SER193      0.2643
     32  O         11.2860   -1.5660   26.8400 O.2   193  SER193     -0.2714
     33  CB        12.1660   -2.4420   23.6560 C.3   193  SER193      0.2130
     34  OG        10.8100   -2.8940   23.6220 O.3   193  SER193     -0.2179
     35  N         12.8490   -0.3090   25.9010 N.am  194  CYS194     -0.1953
     36  CA        12.5160    0.8740   26.7020 C.3   194  CYS194      0.1843
     37  C         12.9660    2.0770   25.8560 C.2   194  CYS194      0.2625
     38  O         13.4070    1.9550   24.7190 O.2   194  CYS194     -0.2714
     39  CB        13.2770    0.8120   28.0310 C.3   194  CYS194      0.0997
     40  SG        12.6440    1.8720   29.3330 S.3   194  CYS194     -0.0797
     41  N         12.8260    3.1890   26.5000 N.am  195  GLN195     -0.1963
     42  CA        13.1760    4.5100   25.9470 C.3   195  GLN195      0.1733
     43  C         14.6810    4.4290   25.5510 C.2   195  GLN195      0.2616
     44  O         15.5240    4.0090   26.3240 O.2   195  GLN195     -0.2715
     45  CB        12.9010    5.5290   27.0620 C.3   195  GLN195      0.0408
     46  CG        13.3660    6.9410   26.7120 C.3   195  GLN195      0.0908
     47  CD        13.0200    7.8430   27.8970 C.2   195  GLN195      0.2608
     48  OE1       12.7800    7.3730   28.9960 O.2   195  GLN195     -0.2717
     49  NE2       12.9900    9.1240   27.7260 N.am  195  GLN195     -0.0878
     50  N         14.9770    4.8350   24.3520 N.am  196  GLY196     -0.1955
     51  CA        16.3750    4.8190   23.8220 C.3   196  GLY196      0.1869
     52  C         16.5250    3.6620   22.8360 C.2   196  GLY196      0.2309
     53  O         17.4300    3.6330   22.0280 O.2   196  GLY196     -0.2863
     54  N         14.0050    2.7400   20.7380 N.3   198  SER198     -0.1217
     55  CA        13.1170    3.0550   19.5670 C.3   198  SER198      0.1889
     56  C         13.9260    3.0220   18.2730 C.2   198  SER198      0.2288
     57  O         15.0750    3.4190   18.3070 O.2   198  SER198     -0.2866
     58  CB        12.5420    4.4770   19.6420 C.3   198  SER198      0.2089
     59  OG        11.6780    4.5890   20.7720 O.3   198  SER198     -0.2183
     60  N         11.1790   -1.1830   16.9910 N.3   216  VAL216     -0.1231
     61  CA        10.7670   -0.7580   18.3700 C.3   216  VAL216      0.1692
     62  C         10.0180    0.5910   18.1790 C.2   216  VAL216      0.2593
     63  O         10.6460    1.5290   17.7080 O.2   216  VAL216     -0.2718
     64  CB        12.0870   -0.5850   19.2670 C.3   216  VAL216      0.0266
     65  CG1       11.7130   -0.0990   20.6660 C.3   216  VAL216      0.0020
     66  CG2       12.8930   -1.9000   19.4050 C.3   216  VAL216      0.0020
     67  N          8.7560    0.6550   18.5400 N.am  217  SER217     -0.1938
     68  CA         7.9690    1.9290   18.3810 C.3   217  SER217      0.2055
     69  C          7.4910    2.5730   19.7200 C.2   217  SER217      0.2643
     70  O          7.9250    3.6700   20.0220 O.2   217  SER217     -0.2714
     71  CB         6.7470    1.6180   17.4870 C.3   217  SER217      0.2130
     72  OG         6.1730    2.8750   17.1240 O.3   217  SER217     -0.2179
     73  N          6.6360    1.9330   20.4870 N.am  218  TRP218     -0.1959
     74  CA         6.1540    2.5330   21.7720 C.3   218  TRP218      0.1771
     75  C          5.7630    1.4680   22.8000 C.2   218  TRP218      0.2620
     76  O          5.8700    0.2770   22.5770 O.2   218  TRP218     -0.2715
     77  CB         4.9020    3.4500   21.5380 C.3   218  TRP218      0.0590
     78  CG         3.7380    2.7810   20.7800 C.ar  218  TRP218      0.0006
     79  CD1        3.6340    2.6170   19.4240 C.ar  218  TRP218      0.0946
     80  CD2        2.6200    2.2570   21.3470 C.ar  218  TRP218      0.0152
     81  NE1        2.4820    2.0140   19.2090 N.ar  218  TRP218     -0.2442
     82  CE2        1.8200    1.7680   20.3160 C.ar  218  TRP218      0.0810
     83  CE3        2.1860    2.1500   22.6620 C.ar  218  TRP218      0.0012
     84  CZ2        0.5910    1.1700   20.5970 C.ar  218  TRP218      0.0191
     85  CZ3        0.9560    1.5530   22.9460 C.ar  218  TRP218      0.0001
     86  CH2        0.1630    1.0650   21.9180 C.ar  218  TRP218      0.0015
     87  N          5.3180    1.9140   23.9280 N.am  219  GLY219     -0.1940
     88  CA         4.8990    0.9690   25.0040 C.3   219  GLY219      0.2014
     89  C          4.6350    1.7770   26.2730 C.2   219  GLY219      0.2639
     90  O          5.1670    2.8690   26.4050 O.2   219  GLY219     -0.2714
     91  N          3.8470    1.2540   27.1730 N.am  220  ARG220     -0.1963
     92  CA         3.5650    2.0100   28.4330 C.3   220  ARG220      0.1729
     93  C          4.5830    1.4330   29.4030 C.2   220  ARG220      0.2617
     94  O          4.6080    0.2480   29.6930 O.2   220  ARG220     -0.2715
     95  CB         2.1330    1.7330   28.9520 C.3   220  ARG220      0.0348
     96  CG         1.9110    2.6550   30.1910 C.3   220  ARG220      0.0492
     97  CD         0.5240    2.4490   30.8040 C.3   220  ARG220      0.2205
     98  NE         0.4800    3.2370   32.0800 N.pl3 220  ARG220     -0.0865
     99  CZ         0.3250    2.6880   33.2630 C.cat 220  ARG220      0.5346
    100  NH1        0.1910    1.3970   33.4160 N.pl3 220  ARG220      0.1354
    101  NH2        0.3080    3.4840   34.2950 N.pl3 220  ARG220      0.1354
    102  N          5.3980    2.3190   29.8750 N.am  221  GLY221     -0.1940
    103  CA         6.4570    1.9120   30.8290 C.3   221  GLY221      0.2014
    104  C          7.3880    0.9760   30.0570 C.2   221  GLY221      0.2639
    105  O          7.3840    0.9440   28.8370 O.2   221  GLY221     -0.2714
    106  N          8.1630    0.2550   30.8020 N.am  222  CYS222     -0.1967
    107  CA         9.1310   -0.7120   30.2450 C.3   222  CYS222      0.1712
    108  C          9.0280   -1.9330   31.1220 C.2   222  CYS222      0.2296
    109  O          9.1360   -1.8280   32.3240 O.2   222  CYS222     -0.2864
    110  CB        10.5050   -0.1150   30.3160 C.3   222  CYS222      0.0983
    111  SG        10.6730    1.4100   29.3660 S.3   222  CYS222     -0.0798
    112  N          1.5170   -4.7910   29.5780 N.3   227  LYS227     -0.1231
    113  CA         1.9100   -3.6470   28.7040 C.3   227  LYS227      0.1678
    114  C          3.1030   -4.1110   27.8620 C.2   227  LYS227      0.2434
    115  O          4.2550   -3.8800   28.2170 O.2   227  LYS227     -0.2733
    116  CB         2.2840   -2.4530   29.5930 C.3   227  LYS227      0.0284
    117  CG         1.0940   -2.0840   30.5510 C.3   227  LYS227      0.0035
    118  CD        -0.1430   -1.6190   29.7390 C.3   227  LYS227      0.0206
    119  CE        -1.3670   -1.4580   30.6640 C.3   227  LYS227      0.1093
    120  NZ        -2.4840   -0.8630   29.8910 N.3   227  LYS227     -0.1314
    121  N          2.7940   -4.7700   26.7680 N.am  228  PRO228     -0.2718
    122  CA         3.8230   -5.3210   25.8420 C.3   228  PRO228      0.1535
    123  C          4.5320   -4.1780   25.1320 C.2   228  PRO228      0.2599
    124  O          4.1900   -3.0200   25.2940 O.2   228  PRO228     -0.2715
    125  CB         3.0650   -6.2100   24.8310 C.3   228  PRO228      0.0310
    126  CG         1.6720   -6.4200   25.4630 C.3   228  PRO228      0.0237
    127  CD         1.4230   -5.0960   26.2620 C.3   228  PRO228      0.0939
    128  N          5.5010   -4.5270   24.3460 N.am  229  GLY229     -0.1941
    129  CA         6.2220   -3.4740   23.6150 C.3   229  GLY229      0.2014
    130  C          5.4710   -3.5660   22.2920 C.2   229  GLY229      0.2639
    131  O          5.0530   -4.6530   21.9210 O.2   229  GLY229     -0.2714
    132  N          5.3110   -2.4570   21.6340 N.am  230  VAL230     -0.1963
    133  CA         4.5950   -2.4540   20.3320 C.3   230  VAL230      0.1727
    134  C          5.6810   -2.0830   19.3190 C.2   230  VAL230      0.2616
    135  O          6.5010   -1.2000   19.5660 O.2   230  VAL230     -0.2715
    136  CB         3.4630   -1.4110   20.4050 C.3   230  VAL230      0.0290
    137  CG1        2.5760   -1.5200   19.1600 C.3   230  VAL230      0.0023
    138  CG2        2.6270   -1.7440   21.6360 C.3   230  VAL230      0.0023
    139  N          5.6430   -2.7670   18.2140 N.am  231  TYR231     -0.1974
    140  CA         6.6230   -2.5590   17.1270 C.3   231  TYR231      0.1639
    141  C          5.8720   -2.2810   15.8410 C.2   231  TYR231      0.2290
    142  O          4.7330   -2.7020   15.7240 O.2   231  TYR231     -0.2864
    143  CB         7.4710   -3.8470   16.9570 C.3   231  TYR231      0.0560
    144  CG         8.1700   -4.2550   18.2740 C.ar  231  TYR231     -0.0198
    145  CD1        7.4840   -4.8270   19.3360 C.ar  231  TYR231     -0.0009
    146  CD2        9.5180   -4.0270   18.4060 C.ar  231  TYR231     -0.0009
    147  CE1        8.1550   -5.1540   20.5120 C.ar  231  TYR231      0.0417
    148  CE2       10.1810   -4.3490   19.5640 C.ar  231  TYR231      0.0417
    149  CZ         9.5210   -4.9060   20.6270 C.ar  231  TYR231      0.1957
    150  OH        10.2440   -5.1540   21.7710 O.3   231  TYR231     -0.2866
@<TRIPOS>BOND
     1     1     2    1
     2   142   141    2
     3    13    14    2
     4    13    12    1
     5   141   140    1
     6     2     3    1
     7     2     5    1
     8     3     4    2
     9    12    15    1
    10    12    11    1
    11   143   140    1
    12   143   144    1
    13    15    16    1
    14    60    61    1
    15     5     6    1
    16    72    71    1
    17   140   139    1
    18    71    68    1
    19    63    62    2
    20     6     7   ar
    21     6     8   ar
    22     7     9   ar
    23    16    17   ar
    24    16    18   ar
    25    62    61    1
    26    62    67   am
    27   139   134   am
    28    56    57    2
    29    56    55    1
    30   144   146   ar
    31   144   145   ar
    32    17    19   ar
    33    61    64    1
    34    68    67    1
    35    68    69    1
    36   146   148   ar
    37     8    10   ar
    38     9    10   ar
    39   137   136    1
    40    81    79   ar
    41    81    82   ar
    42    18    20   ar
    43    64    66    1
    44    64    65    1
    45   134   135    2
    46   134   133    1
    47   145   147   ar
    48    19    20   ar
    49    79    78   ar
    50   148   149   ar
    51    55    58    1
    52    55    54    1
    53    58    59    1
    54    69    70    2
    55    69    73   am
    56    82    84   ar
    57    82    80   ar
    58   133   136    1
    59   133   132    1
    60   136   138    1
    61    73    74    1
    62   147   149   ar
    63    84    86   ar
    64   149   150    1
    65    78    80   ar
    66    78    77    1
    67    80    83   ar
    68    77    74    1
    69   132   130   am
    70    74    75    1
    71    86    85   ar
    72   131   130    2
    73    53    52    2
    74   130   129    1
    75    76    75    2
    76    83    85   ar
    77    75    87   am
    78    52    51    1
    79   129   128    1
    80    34    33    1
    81    33    30    1
    82    51    50    1
    83    87    88    1
    84   128   123   am
    85    50    43   am
    86    38    37    2
    87   125   126    1
    88   125   122    1
    89    88    89    1
    90   123   124    2
    91   123   122    1
    92    30    29    1
    93    30    31    1
    94   126   127    1
    95    43    42    1
    96    43    44    2
    97    29    23   am
    98   122   121    1
    99    37    41   am
   100    37    36    1
   101    27    26   ar
   102    35    31   am
   103    35    36    1
   104    42    41    1
   105    42    45    1
   106    31    32    2
   107   127   121    1
   108    89    90    2
   109    89    91   am
   110    36    39    1
   111    46    45    1
   112    46    47    1
   113    23    24    2
   114    23    22    1
   115   121   114   am
   116    26    28   ar
   117    26    25    1
   118    91    92    1
   119    22    25    1
   120    22    21    1
   121    49    47   am
   122   114   115    2
   123   114   113    1
   124    47    48    2
   125    39    40    1
   126    92    95    1
   127    92    93    1
   128   113   112    1
   129   113   116    1
   130   105   104    2
   131    95    96    1
   132    40   111    1
   133   111   110    1
   134    93    94    2
   135    93   102   am
   136   116   117    1
   137   118   117    1
   138   118   119    1
   139   102   103    1
   140   120   119    1
   141   104   106   am
   142   104   103    1
   143    96    97    1
   144   107   110    1
   145   107   106    1
   146   107   108    1
   147    97    98    1
   148   108   109    2
   149    98    99    2
   150    99   100    1
   151    99   101    1
