@<TRIPOS>MOLECULE
tmp/1gi9B00.pdb
 130 129 0 0 0
SMALL
GASTEIGER

@<TRIPOS>ATOM
      1  N         19.7850    9.3510   19.6890 N.3    30  VAL30      -0.1231
      2  CA        18.3940    9.5970   19.2930 C.3    30  VAL30       0.1692
      3  C         17.6410    8.2510   19.3270 C.2    30  VAL30       0.2592
      4  O         16.8430    8.0320   20.2150 O.2    30  VAL30      -0.2718
      5  CB        18.4140   10.2280   17.8380 C.3    30  VAL30       0.0266
      6  CG1       16.9810   10.5530   17.3260 C.3    30  VAL30       0.0020
      7  CG2       19.2440   11.5250   17.8770 C.3    30  VAL30       0.0020
      8  N         17.9150    7.3860   18.3850 N.am   31  CYS31      -0.1970
      9  CA        17.2310    6.0680   18.3160 C.3    31  CYS31       0.1712
     10  C         18.1450    5.0540   17.6490 C.2    31  CYS31       0.2296
     11  O         19.2540    5.3670   17.2420 O.2    31  CYS31      -0.2864
     12  CB        15.9430    6.2120   17.4840 C.3    31  CYS31       0.0983
     13  SG        14.5490    7.1580   18.1490 S.3    31  CYS31      -0.0798
     14  N          8.8130    8.6580   14.2590 N.3    46  HIS46      -0.1226
     15  CA         8.7180    9.4730   15.5110 C.3    46  HIS46       0.1752
     16  C         10.0530    9.8850   16.0830 C.2    46  HIS46       0.2596
     17  O         10.0720   10.7880   16.8920 O.2    46  HIS46      -0.2718
     18  CB         7.9090    8.7490   16.6760 C.3    46  HIS46       0.0759
     19  CG         8.6090    7.7260   17.6180 C.ar   46  HIS46       0.0818
     20  ND1        8.5730    6.4260   17.5330 N.ar   46  HIS46      -0.2268
     21  CD2        9.3710    8.0200   18.7300 C.ar   46  HIS46       0.1154
     22  CE1        9.2590    5.9310   18.5200 C.ar   46  HIS46       0.1986
     23  NE2        9.7540    6.8850   19.2600 N.ar   46  HIS46      -0.2212
     24  N         11.1090    9.2530   15.6730 N.am   47  CYS47      -0.1970
     25  CA        12.4680    9.6130   16.2010 C.3    47  CYS47       0.1712
     26  C         12.9830   10.9270   15.5870 C.2    47  CYS47       0.2296
     27  O         13.7250   11.6760   16.2030 O.2    47  CYS47      -0.2864
     28  CB        13.4890    8.5230   15.8390 C.3    47  CYS47       0.0983
     29  SG        13.2800    6.9110   16.6060 S.3    47  CYS47      -0.0798
     30  N          1.6600    5.4430   17.8570 N.3    94  HIS94      -0.1241
     31  CA         2.3020    6.1060   16.6810 C.3    94  HIS94       0.1621
     32  C          1.7900    5.2230   15.5530 C.2    94  HIS94       0.2264
     33  O          1.8900    4.0150   15.6810 O.2    94  HIS94      -0.2867
     34  CB         3.8070    5.9750   16.6580 C.3    94  HIS94       0.0745
     35  CG         4.5050    6.7260   17.7890 C.ar   94  HIS94       0.0817
     36  ND1        4.5770    8.0220   17.9510 N.ar   94  HIS94      -0.2268
     37  CD2        5.1820    6.1370   18.8230 C.ar   94  HIS94       0.1154
     38  CE1        5.2720    8.2310   19.0430 C.ar   94  HIS94       0.1986
     39  NE2        5.6460    7.0930   19.5830 N.ar   94  HIS94      -0.2212
     40  N         11.6690   -6.0700   28.4760 N.3   192  ASP192     -0.1225
     41  CA        10.8700   -5.3300   27.4460 C.3   192  ASP192      0.1805
     42  C         11.7430   -4.2110   26.8700 C.2   192  ASP192      0.2598
     43  O         12.8590   -4.0140   27.3440 O.2   192  ASP192     -0.2718
     44  CB         9.6600   -4.7430   28.1900 C.3   192  ASP192      0.1424
     45  CG         8.5550   -4.1560   27.3410 C.2   192  ASP192      0.3668
     46  OD1        8.6010   -4.2980   26.1310 O.co2 192  ASP192     -0.2456
     47  OD2        7.6870   -3.5860   27.9780 O.co2 192  ASP192     -0.2456
     48  N         11.2220   -3.5140   25.8870 N.am  193  SER193     -0.1938
     49  CA        11.9610   -2.3760   25.2560 C.3   193  SER193      0.2055
     50  C         11.5050   -1.1710   26.1180 C.2   193  SER193      0.2643
     51  O         10.5310   -1.2630   26.8420 O.2   193  SER193     -0.2714
     52  CB        11.5270   -2.1950   23.7510 C.3   193  SER193      0.2130
     53  OG        10.1810   -2.6350   23.6310 O.3   193  SER193     -0.2179
     54  N         12.2100   -0.0840   26.0370 N.am  194  CYS194     -0.1953
     55  CA        11.8510    1.1130   26.8190 C.3   194  CYS194      0.1843
     56  C         12.3590    2.3430   26.0560 C.2   194  CYS194      0.2625
     57  O         12.8950    2.2520   24.9650 O.2   194  CYS194     -0.2714
     58  CB        12.4900    1.0120   28.2110 C.3   194  CYS194      0.0997
     59  SG        11.7390    1.9990   29.5350 S.3   194  CYS194     -0.0797
     60  N         12.1640    3.4590   26.6810 N.am  195  GLN195     -0.1963
     61  CA        12.5720    4.7680   26.1280 C.3   195  GLN195      0.1733
     62  C         14.0330    4.6270   25.7260 C.2   195  GLN195      0.2616
     63  O         14.8490    4.1570   26.5020 O.2   195  GLN195     -0.2715
     64  CB        12.4020    5.8190   27.2240 C.3   195  GLN195      0.0408
     65  CG        12.4000    7.2240   26.6420 C.3   195  GLN195      0.0908
     66  CD        12.0310    8.1690   27.7750 C.2   195  GLN195      0.2608
     67  OE1       11.2850    7.8080   28.6660 O.2   195  GLN195     -0.2717
     68  NE2       12.4950    9.3750   27.8150 N.am  195  GLN195     -0.0878
     69  N         14.3290    5.0340   24.5310 N.am  196  GLY196     -0.1955
     70  CA        15.7320    4.9430   24.0360 C.3   196  GLY196      0.1869
     71  C         15.8760    3.7700   23.0820 C.2   196  GLY196      0.2309
     72  O         16.8410    3.6860   22.3510 O.2   196  GLY196     -0.2863
     73  N         13.4960    2.9420   20.7480 N.3   198  SER198     -0.1217
     74  CA        12.6970    3.2520   19.5120 C.3   198  SER198      0.1889
     75  C         13.5090    3.0790   18.2270 C.2   198  SER198      0.2288
     76  O         14.6790    3.4330   18.2190 O.2   198  SER198     -0.2866
     77  CB        12.2000    4.7240   19.5120 C.3   198  SER198      0.2089
     78  OG        11.3200    4.9380   20.6310 O.3   198  SER198     -0.2183
     79  N         10.9490   -1.1250   16.9590 N.3   216  VAL216     -0.1231
     80  CA        10.4880   -0.6940   18.3410 C.3   216  VAL216      0.1692
     81  C          9.7290    0.6390   18.1440 C.2   216  VAL216      0.2593
     82  O         10.3140    1.5830   17.6290 O.2   216  VAL216     -0.2718
     83  CB        11.7420   -0.5010   19.2740 C.3   216  VAL216      0.0266
     84  CG1       11.2710   -0.1460   20.7030 C.3   216  VAL216      0.0020
     85  CG2       12.5460   -1.8330   19.4080 C.3   216  VAL216      0.0020
     86  N          8.4860    0.6670   18.5570 N.am  217  SER217     -0.1938
     87  CA         7.6560    1.9060   18.4000 C.3   217  SER217      0.2055
     88  C          7.1450    2.5630   19.7150 C.2   217  SER217      0.2643
     89  O          7.5370    3.6800   20.0110 O.2   217  SER217     -0.2714
     90  CB         6.4770    1.5280   17.5230 C.3   217  SER217      0.2130
     91  OG         5.8760    2.7670   17.1400 O.3   217  SER217     -0.2179
     92  N          6.2920    1.9120   20.4650 N.am  218  TRP218     -0.1959
     93  CA         5.7830    2.5340   21.7250 C.3   218  TRP218      0.1771
     94  C          5.3650    1.5150   22.7850 C.2   218  TRP218      0.2620
     95  O          5.5920    0.3220   22.6790 O.2   218  TRP218     -0.2715
     96  CB         4.5540    3.4690   21.4070 C.3   218  TRP218      0.0590
     97  CG         3.3920    2.7940   20.6620 C.ar  218  TRP218      0.0006
     98  CD1        3.3050    2.5350   19.3100 C.ar  218  TRP218      0.0946
     99  CD2        2.2470    2.3650   21.2480 C.ar  218  TRP218      0.0152
    100  NE1        2.1330    1.9730   19.1130 N.ar  218  TRP218     -0.2442
    101  CE2        1.4410    1.8390   20.2260 C.ar  218  TRP218      0.0810
    102  CE3        1.7820    2.3560   22.5600 C.ar  218  TRP218      0.0012
    103  CZ2        0.1890    1.3160   20.5280 C.ar  218  TRP218      0.0191
    104  CZ3        0.5260    1.8330   22.8520 C.ar  218  TRP218      0.0001
    105  CH2       -0.2620    1.3150   21.8300 C.ar  218  TRP218      0.0015
    106  N          4.7680    2.0060   23.8260 N.am  219  GLY219     -0.1954
    107  CA         4.3060    1.1140   24.9170 C.3   219  GLY219      0.1869
    108  C          4.0190    1.9310   26.1520 C.2   219  GLY219      0.2309
    109  O          4.5830    3.0000   26.3020 O.2   219  GLY219     -0.2863
    110  N          4.6070    2.5310   29.8270 N.3   221  GLY221     -0.1210
    111  CA         5.5940    2.1180   30.8620 C.3   221  GLY221      0.1956
    112  C          6.5990    1.1760   30.1860 C.2   221  GLY221      0.2612
    113  O          6.7180    1.1920   28.9770 O.2   221  GLY221     -0.2717
    114  N          7.3070    0.4040   30.9550 N.am  222  CYS222     -0.1970
    115  CA         8.2900   -0.5460   30.3860 C.3   222  CYS222      0.1712
    116  C          8.2140   -1.7550   31.3020 C.2   222  CYS222      0.2296
    117  O          8.2840   -1.6190   32.5010 O.2   222  CYS222     -0.2864
    118  CB         9.6700    0.0750   30.4080 C.3   222  CYS222      0.0983
    119  SG         9.7800    1.5740   29.4070 S.3   222  CYS222     -0.0798
    120  N          2.1810   -4.7320   26.7620 N.3   228  PRO228     -0.2102
    121  CA         3.2640   -5.2720   25.8760 C.3   228  PRO228      0.1504
    122  C          3.9730   -4.0950   25.1870 C.2   228  PRO228      0.2576
    123  O          3.5870   -2.9650   25.3660 O.2   228  PRO228     -0.2718
    124  CB         2.5300   -6.2100   24.8710 C.3   228  PRO228      0.0282
    125  CG         1.0960   -6.4180   25.4750 C.3   228  PRO228      0.0208
    126  CD         0.8240   -5.1330   26.2800 C.3   228  PRO228      0.0893
    127  N          4.9880   -4.3440   24.4110 N.am  229  GLY229     -0.1957
    128  CA         5.6530   -3.2100   23.7460 C.3   229  GLY229      0.1869
    129  C          5.0070   -3.3790   22.3840 C.2   229  GLY229      0.2309
    130  O          4.6720   -4.4960   22.0220 O.2   229  GLY229     -0.2863
@<TRIPOS>BOND
     1    14    15    1
     2    15    16    1
     3    15    18    1
     4    32    33    2
     5    32    31    1
     6    26    25    1
     7    26    27    2
     8    24    16   am
     9    24    25    1
    10    28    25    1
    11    28    29    1
    12    16    17    2
    13    29    13    1
    14    34    31    1
    15    34    35    1
    16    18    19    1
    17    31    30    1
    18    79    80    1
    19    91    90    1
    20    11    10    2
    21     6     5    1
    22    12    13    1
    23    12     9    1
    24    90    87    1
    25    20    19   ar
    26    20    22   ar
    27    19    21   ar
    28    82    81    2
    29    10     9    1
    30    35    36   ar
    31    35    37   ar
    32     5     7    1
    33     5     2    1
    34    36    38   ar
    35    81    80    1
    36    81    86   am
    37    76    75    2
    38    75    74    1
    39     9     8    1
    40    80    83    1
    41     8     3   am
    42    87    86    1
    43    87    88    1
    44    22    23   ar
    45    21    23   ar
    46    37    39   ar
    47    38    39   ar
    48   100    98   ar
    49   100   101   ar
    50    83    85    1
    51    83    84    1
    52     2     3    1
    53     2     1    1
    54    98    97   ar
    55     3     4    2
    56    77    74    1
    57    77    78    1
    58    74    73    1
    59    88    89    2
    60    88    92   am
    61   101   103   ar
    62   101    99   ar
    63    92    93    1
    64   103   105   ar
    65    97    99   ar
    66    97    96    1
    67    99   102   ar
    68    96    93    1
    69    93    94    1
    70   105   104   ar
    71   130   129    2
    72    72    71    2
    73   129   128    1
    74   102   104   ar
    75    95    94    2
    76    94   106   am
    77    71    70    1
    78    53    52    1
    79   128   127    1
    80    52    49    1
    81   106   107    1
    82    70    69    1
    83   127   122   am
    84    69    62   am
    85   124   125    1
    86   124   121    1
    87   107   108    1
    88    57    56    2
    89   122   123    2
    90   122   121    1
    91    49    48    1
    92    49    50    1
    93   125   126    1
    94    62    61    1
    95    62    63    2
    96   121   120    1
    97    48    42   am
    98    54    50   am
    99    54    55    1
   100    56    60   am
   101    56    55    1
   102    50    51    2
   103    61    60    1
   104    61    64    1
   105    46    45   ar
   106   108   109    2
   107   126   120    1
   108    65    64    1
   109    65    66    1
   110    55    58    1
   111    42    43    2
   112    42    41    1
   113    45    47   ar
   114    45    44    1
   115    41    44    1
   116    41    40    1
   117    66    68   am
   118    66    67    2
   119    58    59    1
   120   113   112    2
   121   119    59    1
   122   119   118    1
   123   110   111    1
   124   112   111    1
   125   112   114   am
   126   115   118    1
   127   115   114    1
   128   115   116    1
   129   116   117    2
