@<TRIPOS>MOLECULE
tmp/1giiA00.pdb
 162 155 0 0 0
SMALL
GASTEIGER

@<TRIPOS>ATOM
      1  N         11.1240    4.5920   27.8880 N.3    10  ILE10      -0.1231
      2  CA        10.5630    5.5080   26.8940 C.3    10  ILE10       0.1692
      3  C         11.4080    6.7830   26.8800 C.2    10  ILE10       0.2593
      4  O         11.7830    7.2990   25.8260 O.2    10  ILE10      -0.2718
      5  CB         9.0800    5.8710   27.2640 C.3    10  ILE10       0.0266
      6  CG1        8.1000    4.9210   26.5860 C.3    10  ILE10       0.0019
      7  CG2        8.7450    7.3210   26.9150 C.3    10  ILE10       0.0020
      8  CD1        6.6620    5.2910   26.8520 C.3    10  ILE10       0.0001
      9  N         11.6770    7.2970   28.0720 N.am   11  GLY11      -0.1942
     10  CA        12.4550    8.5020   28.1980 C.3    11  GLY11       0.2014
     11  C         12.5830    8.8470   29.6590 C.2    11  GLY11       0.2639
     12  O         12.5970    7.9610   30.5060 O.2    11  GLY11      -0.2714
     13  N         12.6740   10.1370   29.9550 N.am   12  GLU12      -0.1963
     14  CA        12.8130   10.5950   31.3270 C.3    12  GLU12       0.1733
     15  C         12.8460   12.1060   31.4080 C.2    12  GLU12       0.2616
     16  O         13.6830   12.7510   30.7780 O.2    12  GLU12      -0.2715
     17  CB        14.0800   10.0130   31.9610 C.3    12  GLU12       0.0429
     18  CG        15.3050   10.0320   31.0660 C.3    12  GLU12       0.1163
     19  CD        16.4180    9.1470   31.5900 C.2    12  GLU12       0.3649
     20  OE1       16.2240    8.4810   32.6340 O.co2  12  GLU12      -0.2457
     21  OE2       17.4900    9.1050   30.9480 O.co2  12  GLU12      -0.2457
     22  N         11.9070   12.6650   32.1610 N.am   13  GLY13      -0.1955
     23  CA        11.8510   14.1040   32.3190 C.3    13  GLY13       0.1869
     24  C         12.5170   14.4910   33.6150 C.2    13  GLY13       0.2309
     25  O         13.2940   13.7020   34.1710 O.2    13  GLY13      -0.2863
     26  N         10.3570    7.3440   32.3930 N.3    18  VAL18      -0.1245
     27  CA         9.1630    6.8140   31.7680 C.3    18  VAL18       0.1561
     28  C          9.5120    5.5290   31.0460 C.2    18  VAL18       0.2260
     29  O         10.5500    5.4300   30.3820 O.2    18  VAL18      -0.2867
     30  CB         8.4950    7.8090   30.7830 C.3    18  VAL18       0.0252
     31  CG1        7.1360    7.2490   30.3540 C.3    18  VAL18       0.0019
     32  CG2        8.3190    9.2010   31.4280 C.3    18  VAL18       0.0019
     33  N          2.2470    3.8080   29.1840 N.3    31  ALA31      -0.1245
     34  CA         3.4430    4.5900   29.4750 C.3    31  ALA31       0.1562
     35  C          3.4150    4.7140   30.9990 C.2    31  ALA31       0.2260
     36  O          2.4430    5.2000   31.5910 O.2    31  ALA31      -0.2867
     37  CB         3.3780    5.9620   28.8080 C.3    31  ALA31       0.0290
     38  N          5.1460    6.2340   34.2850 N.3    33  LYS33      -0.1245
     39  CA         6.0920    7.2350   34.7830 C.3    33  LYS33       0.1561
     40  C          6.3530    7.0290   36.2820 C.2    33  LYS33       0.2260
     41  O          5.4350    7.0470   37.0850 O.2    33  LYS33      -0.2867
     42  CB         5.5310    8.6440   34.5250 C.3    33  LYS33       0.0271
     43  CG         6.3930    9.8180   35.0120 C.3    33  LYS33       0.0035
     44  CD         5.6500   11.1260   34.7950 C.3    33  LYS33       0.0206
     45  CE         6.5550   12.2360   34.2400 C.3    33  LYS33       0.1093
     46  NZ         7.3830   12.9730   35.2760 N.3    33  LYS33      -0.1314
     47  N         -2.7670   13.4620   26.2570 N.3    56  VAL56      -0.1245
     48  CA        -2.4330   12.0840   26.6450 C.3    56  VAL56       0.1561
     49  C         -3.2110   11.7470   27.9470 C.2    56  VAL56       0.2260
     50  O         -3.1550   12.4740   28.9620 O.2    56  VAL56      -0.2867
     51  CB        -0.9410   11.9360   26.8930 C.3    56  VAL56       0.0252
     52  CG1       -0.5860   10.5140   27.3170 C.3    56  VAL56       0.0019
     53  CG2       -0.1930   12.2540   25.6080 C.3    56  VAL56       0.0019
     54  N         -0.1070    6.2770   32.0840 N.3    72  PHE72      -0.1227
     55  CA        -0.6740    7.0240   30.9620 C.3    72  PHE72       0.1736
     56  C         -0.9440    6.0950   29.7470 C.2    72  PHE72       0.2595
     57  O         -0.3550    5.0210   29.6090 O.2    72  PHE72      -0.2718
     58  CB         0.3620    8.0770   30.4910 C.3    72  PHE72       0.0547
     59  CG         0.5610    9.2540   31.4520 C.ar   72  PHE72      -0.0202
     60  CD1       -0.3330   10.3330   31.4650 C.ar   72  PHE72      -0.0042
     61  CD2        1.6580    9.2890   32.2970 C.ar   72  PHE72      -0.0042
     62  CE1       -0.1190   11.4370   32.3210 C.ar   72  PHE72      -0.0003
     63  CE2        1.8790   10.3680   33.1500 C.ar   72  PHE72      -0.0003
     64  CZ         0.9820   11.4460   33.1580 C.ar   72  PHE72      -0.0000
     65  N         -1.7750    6.5500   28.8230 N.am   73  GLU73      -0.1965
     66  CA        -1.9950    5.7840   27.5930 C.3    73  GLU73       0.1733
     67  C         -0.6640    5.9240   26.8380 C.2    73  GLU73       0.2616
     68  O          0.0930    6.9130   27.0030 O.2    73  GLU73      -0.2715
     69  CB        -3.1000    6.4100   26.7530 C.3    73  GLU73       0.0429
     70  CG        -2.6780    7.6870   26.0640 C.3    73  GLU73       0.1163
     71  CD        -3.7310    8.2780   25.1430 C.2    73  GLU73       0.3649
     72  OE1       -3.9630    7.7140   24.0550 O.co2  73  GLU73      -0.2457
     73  OE2       -4.2860    9.3530   25.4630 O.co2  73  GLU73      -0.2457
     74  N         -0.3350    4.9050   26.0640 N.am   74  HIS74      -0.1959
     75  CA         0.8920    4.9100   25.2870 C.3    74  HIS74       0.1787
     76  C          0.5390    5.4570   23.8900 C.2    74  HIS74       0.2620
     77  O         -0.5070    5.1290   23.3220 O.2    74  HIS74      -0.2715
     78  CB         1.4320    3.4760   25.1510 C.3    74  HIS74       0.0785
     79  CG         2.6820    3.3940   24.3430 C.ar   74  HIS74       0.0821
     80  ND1        2.6900    2.9490   23.0480 N.ar   74  HIS74      -0.2267
     81  CD2        3.9500    3.7670   24.6230 C.ar   74  HIS74       0.1154
     82  CE1        3.9110    3.0590   22.5550 C.ar   74  HIS74       0.1986
     83  NE2        4.6930    3.5510   23.4940 N.ar   74  HIS74      -0.2212
     84  N          1.4310    6.2530   23.3280 N.am   75  VAL75      -0.1963
     85  CA         1.1850    6.8600   22.0250 C.3    75  VAL75       0.1727
     86  C          2.3920    6.4740   21.2370 C.2    75  VAL75       0.2616
     87  O          3.5020    6.5190   21.7520 O.2    75  VAL75      -0.2715
     88  CB         1.0360    8.3770   22.1390 C.3    75  VAL75       0.0290
     89  CG1        0.6830    8.9560   20.7750 C.3    75  VAL75       0.0023
     90  CG2       -0.1030    8.7100   23.1320 C.3    75  VAL75       0.0023
     91  N          2.1800    6.1190   19.9740 N.am   76  HIS76      -0.1959
     92  CA         3.2650    5.6290   19.1500 C.3    76  HIS76       0.1787
     93  C          4.5840    6.3030   18.9030 C.2    76  HIS76       0.2620
     94  O          5.6100    5.6330   18.9810 O.2    76  HIS76      -0.2715
     95  CB         2.7380    4.9610   17.8740 C.3    76  HIS76       0.0785
     96  CG         2.7840    3.4610   17.9630 C.ar   76  HIS76       0.0821
     97  ND1        2.2260    2.7730   19.0300 N.ar   76  HIS76      -0.2267
     98  CD2        3.4410    2.5330   17.2230 C.ar   76  HIS76       0.1154
     99  CE1        2.5420    1.4970   18.9450 C.ar   76  HIS76       0.1986
    100  NE2        3.2770    1.3220   17.8580 N.ar   76  HIS76      -0.2212
    101  N          4.6200    7.6190   18.6950 N.am   77  GLN77      -0.1963
    102  CA         5.9120    8.2600   18.4130 C.3    77  GLN77       0.1733
    103  C          5.8830    9.7170   18.9330 C.2    77  GLN77       0.2616
    104  O          4.8190   10.2260   19.1880 O.2    77  GLN77      -0.2715
    105  CB         6.1290    8.2700   16.9040 C.3    77  GLN77       0.0408
    106  CG         7.5270    8.6340   16.5110 C.3    77  GLN77       0.0908
    107  CD         7.7830    8.4230   15.0310 C.2    77  GLN77       0.2608
    108  OE1        7.4630    9.2730   14.2030 O.2    77  GLN77      -0.2717
    109  NE2        8.3940    7.2960   14.6960 N.am   77  GLN77      -0.0878
    110  N          7.0310   10.3200   19.1800 N.am   78  ASP78      -0.1971
    111  CA         7.0470   11.7470   19.6250 C.3    78  ASP78       0.1709
    112  C          7.3470   12.6320   18.3950 C.2    78  ASP78       0.2293
    113  O          7.9080   12.1630   17.3960 O.2    78  ASP78      -0.2864
    114  CB         8.1030   11.9960   20.6920 C.3    78  ASP78       0.1436
    115  CG         9.4860   11.6700   20.2100 C.2    78  ASP78       0.3671
    116  OD1        9.6930   10.5490   19.7240 O.co2  78  ASP78      -0.2456
    117  OD2       10.3710   12.5080   20.2910 O.co2  78  ASP78      -0.2456
    118  N         11.2350   12.9030   17.0710 N.3    81  THR81      -0.1218
    119  CA        11.7610   11.8380   16.2060 C.3    81  THR81       0.1862
    120  C         11.2100   11.9420   14.7770 C.2    81  THR81       0.2287
    121  O         11.9320   11.7560   13.8130 O.2    81  THR81      -0.2866
    122  CB        11.5400   10.4020   16.8080 C.3    81  THR81       0.1770
    123  OG1       10.1520   10.1060   16.8210 O.3    81  THR81      -0.2211
    124  CG2       11.9960   10.3290   18.1960 C.3    81  THR81       0.0375
    125  N          9.6790   16.8620   22.2860 N.3   123  GLN123     -0.1231
    126  CA         9.7520   15.5730   23.0170 C.3   123  GLN123      0.1698
    127  C          8.4710   15.2070   23.7500 C.2   123  GLN123      0.2592
    128  O          8.2300   14.0350   24.0400 O.2   123  GLN123     -0.2718
    129  CB        10.8970   15.6030   24.0390 C.3   123  GLN123      0.0381
    130  CG        12.2940   15.4800   23.4140 C.3   123  GLN123      0.0905
    131  CD        12.8850   16.7810   22.8360 C.2   123  GLN123      0.2608
    132  OE1       14.0130   16.7460   22.3120 O.2   123  GLN123     -0.2717
    133  NE2       12.1430   17.9240   22.9140 N.am  123  GLN123     -0.0878
    134  N          7.6830   16.1970   24.1580 N.am  124  ASN124     -0.1974
    135  CA         6.4550   15.8170   24.8190 C.3   124  ASN124      0.1688
    136  C          5.1770   16.0110   24.0500 C.2   124  ASN124      0.2292
    137  O          4.0980   15.9760   24.6230 O.2   124  ASN124     -0.2864
    138  CB         6.3670   16.2540   26.2730 C.3   124  ASN124      0.1181
    139  CG         6.5570   17.7060   26.4670 C.2   124  ASN124      0.2629
    140  OD1        5.9750   18.5120   25.7420 O.2   124  ASN124     -0.2716
    141  ND2        7.2910   18.0690   27.5220 N.am  124  ASN124     -0.0877
    142  N          3.1610   14.0490   21.2510 N.3   126  LEU126     -0.1245
    143  CA         3.1200   12.6690   20.7520 C.3   126  LEU126      0.1561
    144  C          2.1460   12.5320   19.6170 C.2   126  LEU126      0.2260
    145  O          1.0310   13.0240   19.6870 O.2   126  LEU126     -0.2867
    146  CB         2.7090   11.7280   21.9030 C.3   126  LEU126      0.0270
    147  CG         3.5660   11.8090   23.1570 C.3   126  LEU126      0.0019
    148  CD1        3.0630   10.8650   24.3060 C.3   126  LEU126      0.0001
    149  CD2        5.0360   11.4800   22.7500 C.3   126  LEU126      0.0001
    150  N          1.6410   15.7170   26.2170 N.3   136  ALA136     -0.1231
    151  CA         2.0210   14.8120   27.2990 C.3   136  ALA136      0.1694
    152  C          2.6990   15.6610   28.3460 C.2   136  ALA136      0.2592
    153  O          3.3240   16.6860   28.0250 O.2   136  ALA136     -0.2718
    154  CB         3.0030   13.7590   26.8110 C.3   136  ALA136      0.0304
    155  N          2.6700   15.1600   29.5740 N.am  137  ASP137     -0.1974
    156  CA         3.2730   15.8150   30.7340 C.3   137  ASP137      0.1709
    157  C          2.6060   17.1140   31.1790 C.2   137  ASP137      0.2293
    158  O          3.2190   17.8780   31.8830 O.2   137  ASP137     -0.2864
    159  CB         4.7490   16.0750   30.4690 C.3   137  ASP137      0.1436
    160  CG         5.6260   14.9830   30.9870 C.2   137  ASP137      0.3671
    161  OD1        5.0710   13.8910   31.2510 O.co2 137  ASP137     -0.2456
    162  OD2        6.8570   15.2160   31.1410 O.co2 137  ASP137     -0.2456
@<TRIPOS>BOND
     1   121   120    2
     2   108   107    2
     3   109   107   am
     4   120   119    1
     5   107   106    1
     6   119   122    1
     7   119   118    1
     8   106   105    1
     9   122   123    1
    10   122   124    1
    11   105   102    1
    12    98   100   ar
    13    98    96   ar
    14   113   112    2
    15   100    99   ar
    16    95    96    1
    17    95    92    1
    18    96    97   ar
    19   112   111    1
    20   102   101    1
    21   102   103    1
    22   101    93   am
    23    93    94    2
    24    93    92    1
    25   103   110   am
    26   103   104    2
    27    99    97   ar
    28    92    91    1
    29   110   111    1
    30   144   145    2
    31   144   143    1
    32   111   114    1
    33   116   115   ar
    34    91    86   am
    35   115   117   ar
    36   115   114    1
    37   143   142    1
    38   143   146    1
    39    89    88    1
    40    86    87    2
    41    86    85    1
    42   146   147    1
    43    85    88    1
    44    85    84    1
    45    88    90    1
    46   125   126    1
    47   132   131    2
    48    82    80   ar
    49    82    83   ar
    50   149   147    1
    51   131   133   am
    52   131   130    1
    53   126   127    1
    54   126   129    1
    55    80    79   ar
    56   147   148    1
    57    77    76    2
    58    84    76   am
    59   130   129    1
    60    83    81   ar
    61   127   128    2
    62   127   134   am
    63    76    75    1
    64   136   137    2
    65   136   135    1
    66    72    71   ar
    67   134   135    1
    68    79    81   ar
    69    79    78    1
    70   135   138    1
    71    71    73   ar
    72    71    70    1
    73    78    75    1
    74    75    74    1
    75    53    51    1
    76   140   139    2
    77     4     3    2
    78    70    69    1
    79    74    67   am
    80   150   151    1
    81    47    48    1
    82   138   139    1
    83   139   141   am
    84     6     8    1
    85     6     5    1
    86    48    51    1
    87    48    49    1
    88    69    66    1
    89   154   151    1
    90    67    68    2
    91    67    66    1
    92     3     2    1
    93     3     9   am
    94    51    52    1
    95     2     5    1
    96     2     1    1
    97     7     5    1
    98   151   152    1
    99    66    65    1
   100    49    50    2
   101   153   152    2
   102     9    10    1
   103    10    11    1
   104   152   155   am
   105    37    34    1
   106    65    56   am
   107    33    34    1
   108    34    35    1
   109   155   156    1
   110    57    56    2
   111    11    13   am
   112    11    12    2
   113    56    55    1
   114    13    14    1
   115    31    30    1
   116    29    28    2
   117   159   156    1
   118   159   160    1
   119    58    55    1
   120    58    59    1
   121   156   157    1
   122    16    15    2
   123    30    32    1
   124    30    27    1
   125    21    19   ar
   126    55    54    1
   127   160   162   ar
   128   160   161   ar
   129    35    36    2
   130    28    27    1
   131    18    19    1
   132    18    17    1
   133   157   158    2
   134    14    15    1
   135    14    17    1
   136    15    22   am
   137    59    60   ar
   138    59    61   ar
   139    60    62   ar
   140    19    20   ar
   141    27    26    1
   142    22    23    1
   143    61    63   ar
   144    23    24    1
   145    62    64   ar
   146    63    64   ar
   147    24    25    2
   148    45    44    1
   149    45    46    1
   150    38    39    1
   151    42    39    1
   152    42    43    1
   153    39    40    1
   154    44    43    1
   155    40    41    2
