@<TRIPOS>MOLECULE
tmp/1gijA00.pdb
 162 155 0 0 0
SMALL
GASTEIGER

@<TRIPOS>ATOM
      1  N         11.2410    4.8190   27.8260 N.3    10  ILE10      -0.1231
      2  CA        10.6990    5.6710   26.7700 C.3    10  ILE10       0.1692
      3  C         11.4220    7.0180   26.7970 C.2    10  ILE10       0.2593
      4  O         11.6910    7.6030   25.7580 O.2    10  ILE10      -0.2718
      5  CB         9.1800    5.9270   26.9930 C.3    10  ILE10       0.0266
      6  CG1        8.3470    4.7810   26.4560 C.3    10  ILE10       0.0019
      7  CG2        8.7250    7.2030   26.3300 C.3    10  ILE10       0.0020
      8  CD1        6.8500    5.0870   26.5300 C.3    10  ILE10       0.0001
      9  N         11.7100    7.5120   27.9940 N.am   11  GLY11      -0.1942
     10  CA        12.3680    8.7960   28.1130 C.3    11  GLY11       0.2014
     11  C         12.2100    9.4370   29.4820 C.2    11  GLY11       0.2639
     12  O         11.4200    8.9950   30.3090 O.2    11  GLY11      -0.2714
     13  N         13.0080   10.4720   29.7230 N.am   12  GLU12      -0.1963
     14  CA        12.9720   11.1960   30.9790 C.3    12  GLU12       0.1733
     15  C         11.9360   12.2910   30.8710 C.2    12  GLU12       0.2616
     16  O         11.7490   12.8750   29.8050 O.2    12  GLU12      -0.2715
     17  CB        14.3320   11.8110   31.2690 C.3    12  GLU12       0.0429
     18  CG        15.4230   10.8080   31.6510 C.3    12  GLU12       0.1163
     19  CD        16.2140   11.2860   32.8570 C.2    12  GLU12       0.3649
     20  OE1       15.5570   11.7060   33.8430 O.co2  12  GLU12      -0.2457
     21  OE2       17.4720   11.2620   32.8200 O.co2  12  GLU12      -0.2457
     22  N         11.2450   12.5560   31.9670 N.am   13  GLY13      -0.1955
     23  CA        10.2190   13.5890   31.9660 C.3    13  GLY13       0.1869
     24  C         10.6110   14.7090   32.9100 C.2    13  GLY13       0.2309
     25  O         11.7030   14.6790   33.4660 O.2    13  GLY13      -0.2863
     26  N          9.9240    7.7600   32.3130 N.3    18  VAL18      -0.1245
     27  CA         8.7870    7.1060   31.7130 C.3    18  VAL18       0.1561
     28  C          9.2390    5.8500   31.0310 C.2    18  VAL18       0.2260
     29  O         10.2760    5.8230   30.4080 O.2    18  VAL18      -0.2867
     30  CB         8.0630    8.0360   30.6930 C.3    18  VAL18       0.0252
     31  CG1        6.6420    7.4310   30.2840 C.3    18  VAL18       0.0019
     32  CG2        7.8590    9.4400   31.3300 C.3    18  VAL18       0.0019
     33  N          2.2340    3.7000   29.2280 N.3    31  ALA31      -0.1245
     34  CA         3.3950    4.5540   29.4880 C.3    31  ALA31       0.1562
     35  C          3.3780    4.7290   31.0070 C.2    31  ALA31       0.2260
     36  O          2.4040    5.2850   31.5750 O.2    31  ALA31      -0.2867
     37  CB         3.2340    5.9020   28.8120 C.3    31  ALA31       0.0290
     38  N          5.0460    6.2960   34.3270 N.3    33  LYS33      -0.1245
     39  CA         5.9380    7.3490   34.8140 C.3    33  LYS33       0.1561
     40  C          6.2130    7.2420   36.3310 C.2    33  LYS33       0.2260
     41  O          5.3110    7.4070   37.1310 O.2    33  LYS33      -0.2867
     42  CB         5.3550    8.7350   34.5030 C.3    33  LYS33       0.0271
     43  CG         6.3590    9.9230   34.7740 C.3    33  LYS33       0.0035
     44  CD         5.6250   11.2620   34.5490 C.3    33  LYS33       0.0206
     45  CE         6.3280   12.1850   33.5570 C.3    33  LYS33       0.1093
     46  NZ         7.7380   12.5120   34.0000 N.3    33  LYS33      -0.1314
     47  N         -2.9290   13.4440   26.4280 N.3    53  VAL53      -0.1245
     48  CA        -2.6180   12.0550   26.6930 C.3    53  VAL53       0.1561
     49  C         -3.4480   11.7010   27.9430 C.2    53  VAL53       0.2260
     50  O         -3.4650   12.4270   28.9290 O.2    53  VAL53      -0.2867
     51  CB        -1.0830   11.8540   26.9690 C.3    53  VAL53       0.0252
     52  CG1       -0.7210   12.3820   28.3100 C.3    53  VAL53       0.0019
     53  CG2       -0.7350   10.4170   26.9210 C.3    53  VAL53       0.0019
     54  N         -0.1630    6.2430   32.1800 N.3    69  PHE69      -0.1227
     55  CA        -0.7680    6.9120   31.0190 C.3    69  PHE69       0.1736
     56  C         -0.9990    5.9730   29.8230 C.2    69  PHE69       0.2595
     57  O         -0.3430    4.9430   29.6860 O.2    69  PHE69      -0.2718
     58  CB         0.2020    7.9950   30.5280 C.3    69  PHE69       0.0547
     59  CG         0.4020    9.1240   31.5080 C.ar   69  PHE69      -0.0202
     60  CD1       -0.4760   10.2370   31.5090 C.ar   69  PHE69      -0.0042
     61  CD2        1.4840    9.1120   32.3730 C.ar   69  PHE69      -0.0042
     62  CE1       -0.2600   11.3200   32.3520 C.ar   69  PHE69      -0.0003
     63  CE2        1.7200   10.1810   33.2300 C.ar   69  PHE69      -0.0003
     64  CZ         0.8470   11.2980   33.2190 C.ar   69  PHE69      -0.0000
     65  N         -1.8730    6.3830   28.9040 N.am   70  GLU70      -0.1965
     66  CA        -2.0250    5.6190   27.6740 C.3    70  GLU70       0.1733
     67  C         -0.6590    5.7580   26.9860 C.2    70  GLU70       0.2616
     68  O          0.1100    6.7280   27.2020 O.2    70  GLU70      -0.2715
     69  CB        -3.0560    6.2380   26.7440 C.3    70  GLU70       0.0429
     70  CG        -2.6190    7.5640   26.1410 C.3    70  GLU70       0.1163
     71  CD        -3.6950    8.1630   25.2310 C.2    70  GLU70       0.3649
     72  OE1       -4.0810    7.4490   24.2940 O.co2  70  GLU70      -0.2457
     73  OE2       -4.1790    9.3040   25.4640 O.co2  70  GLU70      -0.2457
     74  N         -0.3260    4.7750   26.1720 N.am   71  HIS71      -0.1959
     75  CA         0.9300    4.8290   25.4500 C.3    71  HIS71       0.1787
     76  C          0.6160    5.3710   24.0230 C.2    71  HIS71       0.2620
     77  O         -0.4000    5.0000   23.3860 O.2    71  HIS71      -0.2715
     78  CB         1.5380    3.4610   25.3370 C.3    71  HIS71       0.0785
     79  CG         2.7600    3.4450   24.4750 C.ar   71  HIS71       0.0821
     80  ND1        2.7220    3.1030   23.1380 N.ar   71  HIS71      -0.2267
     81  CD2        4.0440    3.7940   24.7460 C.ar   71  HIS71       0.1154
     82  CE1        3.9360    3.2320   22.6250 C.ar   71  HIS71       0.1986
     83  NE2        4.7620    3.6540   23.5770 N.ar   71  HIS71      -0.2212
     84  N          1.4920    6.2120   23.5020 N.am   72  VAL72      -0.1963
     85  CA         1.2560    6.7890   22.1920 C.3    72  VAL72       0.1727
     86  C          2.4100    6.3900   21.3490 C.2    72  VAL72       0.2616
     87  O          3.5980    6.4210   21.7810 O.2    72  VAL72      -0.2715
     88  CB         1.0700    8.3360   22.2760 C.3    72  VAL72       0.0290
     89  CG1        1.0070    8.9600   20.8790 C.3    72  VAL72       0.0023
     90  CG2       -0.2300    8.6530   23.0280 C.3    72  VAL72       0.0023
     91  N          2.0550    5.9400   20.1600 N.am   73  HIS73      -0.1959
     92  CA         3.0180    5.4510   19.2140 C.3    73  HIS73       0.1787
     93  C          4.3910    6.1130   19.0630 C.2    73  HIS73       0.2620
     94  O          5.4040    5.4110   19.0520 O.2    73  HIS73      -0.2715
     95  CB         2.3880    5.2920   17.8370 C.3    73  HIS73       0.0785
     96  CG         3.2370    4.4820   16.9180 C.ar   73  HIS73       0.0821
     97  ND1        3.4520    3.1330   17.1120 N.ar   73  HIS73      -0.2267
     98  CD2        4.0040    4.8390   15.8580 C.ar   73  HIS73       0.1154
     99  CE1        4.3120    2.6920   16.2120 C.ar   73  HIS73       0.1986
    100  NE2        4.6650    3.7080   15.4410 N.ar   73  HIS73      -0.2212
    101  N          4.4020    7.4220   18.8030 N.am   74  GLN74      -0.1963
    102  CA         5.6290    8.1930   18.5740 C.3    74  GLN74       0.1733
    103  C          5.5810    9.6540   19.1080 C.2    74  GLN74       0.2616
    104  O          4.5110   10.1690   19.4240 O.2    74  GLN74      -0.2715
    105  CB         5.8910    8.2310   17.0730 C.3    74  GLN74       0.0408
    106  CG         7.3030    8.5510   16.7060 C.3    74  GLN74       0.0908
    107  CD         7.4530    8.7310   15.2110 C.2    74  GLN74       0.2608
    108  OE1        7.2390    7.7940   14.4440 O.2    74  GLN74      -0.2717
    109  NE2        7.7710    9.9580   14.7800 N.am   74  GLN74      -0.0878
    110  N          6.7460   10.2680   19.2740 N.am   75  ASP75      -0.1971
    111  CA         6.8420   11.6790   19.7200 C.3    75  ASP75       0.1709
    112  C          7.2290   12.5310   18.4880 C.2    75  ASP75       0.2293
    113  O          7.8120   12.0140   17.4900 O.2    75  ASP75      -0.2864
    114  CB         7.8690   11.8360   20.8510 C.3    75  ASP75       0.1436
    115  CG         9.3060   11.6810   20.3670 C.2    75  ASP75       0.3671
    116  OD1       10.0480   12.6830   20.3050 O.co2  75  ASP75      -0.2456
    117  OD2        9.6910   10.5540   20.0140 O.co2  75  ASP75      -0.2456
    118  N         11.0570   12.8760   17.2950 N.3    78  THR78      -0.1218
    119  CA        11.5450   11.7600   16.4650 C.3    78  THR78       0.1862
    120  C         11.0470   11.9230   15.0490 C.2    78  THR78       0.2287
    121  O         11.7490   11.6270   14.1020 O.2    78  THR78      -0.2866
    122  CB        11.0260   10.4090   16.9690 C.3    78  THR78       0.1770
    123  OG1       11.5770   10.1640   18.2530 O.3    78  THR78      -0.2211
    124  CG2       11.4130    9.2930   15.9820 C.3    78  THR78       0.0375
    125  N          9.6450   16.7150   22.3410 N.3   120  GLN120     -0.1231
    126  CA         9.7190   15.4090   23.0300 C.3   120  GLN120      0.1698
    127  C          8.4740   15.0340   23.7780 C.2   120  GLN120      0.2592
    128  O          8.2770   13.8770   24.1170 O.2   120  GLN120     -0.2718
    129  CB        10.8800   15.3510   24.0370 C.3   120  GLN120      0.0381
    130  CG        12.2150   15.1760   23.4330 C.3   120  GLN120      0.0905
    131  CD        13.3080   15.8130   24.3020 C.2   120  GLN120      0.2608
    132  OE1       13.2150   15.8230   25.5630 O.2   120  GLN120     -0.2717
    133  NE2       14.3420   16.3740   23.6360 N.am  120  GLN120     -0.0878
    134  N          7.6580   16.0080   24.1440 N.am  121  ASN121     -0.1974
    135  CA         6.4670   15.6160   24.8500 C.3   121  ASN121      0.1688
    136  C          5.1870   15.8250   24.1310 C.2   121  ASN121      0.2292
    137  O          4.1350   15.8420   24.7320 O.2   121  ASN121     -0.2864
    138  CB         6.4230   16.1370   26.2880 C.3   121  ASN121      0.1181
    139  CG         6.5040   17.6420   26.3940 C.2   121  ASN121      0.2629
    140  OD1        5.9110   18.3960   25.5950 O.2   121  ASN121     -0.2716
    141  ND2        7.2320   18.0970   27.4250 N.am  121  ASN121     -0.0877
    142  N          2.9480   14.0870   21.4130 N.3   123  LEU123     -0.1245
    143  CA         2.8430   12.6850   20.9690 C.3   123  LEU123      0.1561
    144  C          1.9080   12.5540   19.7980 C.2   123  LEU123      0.2260
    145  O          0.8570   13.1440   19.7950 O.2   123  LEU123     -0.2867
    146  CB         2.3550   11.8270   22.1640 C.3   123  LEU123      0.0270
    147  CG         3.0470   12.0050   23.5340 C.3   123  LEU123      0.0019
    148  CD1        2.4770   11.0500   24.6330 C.3   123  LEU123      0.0001
    149  CD2        4.5160   11.7160   23.3460 C.3   123  LEU123      0.0001
    150  N          1.5080   15.8640   26.5190 N.3   133  ALA133     -0.1231
    151  CA         1.8820   14.9770   27.6110 C.3   133  ALA133      0.1694
    152  C          2.7740   15.7470   28.5620 C.2   133  ALA133      0.2592
    153  O          3.3250   16.7570   28.1530 O.2   133  ALA133     -0.2718
    154  CB         2.7390   13.8070   27.0720 C.3   133  ALA133      0.0304
    155  N          3.1390   15.0930   29.6850 N.am  134  ASP134     -0.1974
    156  CA         4.0770   15.6180   30.7280 C.3   134  ASP134      0.1709
    157  C          3.5350   16.9460   31.1920 C.2   134  ASP134      0.2293
    158  O          4.2620   17.9160   31.2900 O.2   134  ASP134     -0.2864
    159  CB         5.4280   15.8170   30.0530 C.3   134  ASP134      0.1436
    160  CG         6.6230   15.6540   30.9850 C.2   134  ASP134      0.3671
    161  OD1        6.4990   15.1390   32.1150 O.co2 134  ASP134     -0.2456
    162  OD2        7.7200   16.0140   30.5340 O.co2 134  ASP134     -0.2456
@<TRIPOS>BOND
     1   121   120    2
     2   108   107    2
     3   109   107   am
     4   120   119    1
     5   107   106    1
     6   100    98   ar
     7   100    99   ar
     8    98    96   ar
     9   124   122    1
    10    99    97   ar
    11   119   122    1
    12   119   118    1
    13   106   105    1
    14    96    97   ar
    15    96    95    1
    16   122   123    1
    17   105   102    1
    18   113   112    2
    19    95    92    1
    20   112   111    1
    21   102   101    1
    22   102   103    1
    23   101    93   am
    24    94    93    2
    25    93    92    1
    26   103   110   am
    27   103   104    2
    28    92    91    1
    29   110   111    1
    30   111   114    1
    31   145   144    2
    32   144   143    1
    33   117   115   ar
    34    91    86   am
    35   116   115   ar
    36   115   114    1
    37    89    88    1
    38   143   142    1
    39   143   146    1
    40    86    87    2
    41    86    85    1
    42   146   147    1
    43    85    88    1
    44    85    84    1
    45    88    90    1
    46   125   126    1
    47    82    80   ar
    48    82    83   ar
    49   126   127    1
    50   126   129    1
    51    80    79   ar
    52   149   147    1
    53    77    76    2
    54   130   129    1
    55   130   131    1
    56    84    76   am
    57   147   148    1
    58    83    81   ar
    59   133   131   am
    60   127   128    2
    61   127   134   am
    62    76    75    1
    63   136   137    2
    64   136   135    1
    65   134   135    1
    66    72    71   ar
    67   131   132    2
    68    79    81   ar
    69    79    78    1
    70   135   138    1
    71    71    73   ar
    72    71    70    1
    73    78    75    1
    74    75    74    1
    75   140   139    2
    76     4     3    2
    77    70    69    1
    78    74    67   am
    79   138   139    1
    80     7     5    1
    81   139   141   am
    82    47    48    1
    83     6     8    1
    84     6     5    1
    85   150   151    1
    86    48    51    1
    87    48    49    1
    88    69    66    1
    89     2     3    1
    90     2     5    1
    91     2     1    1
    92     3     9   am
    93    53    51    1
    94    51    52    1
    95    67    68    2
    96    67    66    1
    97   154   151    1
    98   151   152    1
    99    66    65    1
   100    49    50    2
   101     9    10    1
   102    10    11    1
   103   153   152    2
   104   152   155   am
   105    37    34    1
   106    65    56   am
   107    33    34    1
   108    11    13   am
   109    11    12    2
   110    34    35    1
   111   155   156    1
   112    57    56    2
   113    13    14    1
   114    16    15    2
   115    56    55    1
   116   159   156    1
   117   159   160    1
   118    31    30    1
   119    29    28    2
   120    58    55    1
   121    58    59    1
   122   162   160   ar
   123    30    32    1
   124    30    27    1
   125   156   157    1
   126    15    14    1
   127    15    22   am
   128    14    17    1
   129   160   161   ar
   130    35    36    2
   131    55    54    1
   132    28    27    1
   133   157   158    2
   134    17    18    1
   135    59    60   ar
   136    59    61   ar
   137    60    62   ar
   138    18    19    1
   139    27    26    1
   140    23    22    1
   141    23    24    1
   142    62    64   ar
   143    61    63   ar
   144    21    19   ar
   145    19    20   ar
   146    24    25    2
   147    64    63   ar
   148    45    46    1
   149    45    44    1
   150    38    39    1
   151    42    43    1
   152    42    39    1
   153    44    43    1
   154    39    40    1
   155    40    41    2
