@<TRIPOS>MOLECULE
tmp/1girA00.pdb
 219 215 0 0 0
SMALL
GASTEIGER

@<TRIPOS>ATOM
      1  N        -48.7980   -7.6190   86.5520 N.3   249  TYR249     -0.1241
      2  CA       -47.4830   -7.8030   87.1600 C.3   249  TYR249      0.1605
      3  C        -47.5740   -8.2350   88.6220 C.2   249  TYR249      0.2264
      4  O        -46.7190   -8.9760   89.1120 O.2   249  TYR249     -0.2867
      5  CB       -46.6390   -6.5180   87.0580 C.3   249  TYR249      0.0534
      6  CG       -47.2510   -5.3000   87.7170 C.ar  249  TYR249     -0.0201
      7  CD1      -48.0490   -4.4150   86.9910 C.ar  249  TYR249     -0.0009
      8  CD2      -47.0640   -5.0500   89.0770 C.ar  249  TYR249     -0.0009
      9  CE1      -48.6480   -3.3150   87.6010 C.ar  249  TYR249      0.0417
     10  CE2      -47.6630   -3.9500   89.6990 C.ar  249  TYR249      0.0417
     11  CZ       -48.4540   -3.0910   88.9550 C.ar  249  TYR249      0.1957
     12  OH       -49.0740   -2.0230   89.5720 O.3   249  TYR249     -0.2866
     13  N        -45.6610  -11.5940   89.4360 N.3   253  ASN253     -0.1240
     14  CA       -44.4700  -11.5360   90.2700 C.3   253  ASN253      0.1653
     15  C        -44.6540  -12.1290   91.6650 C.2   253  ASN253      0.2266
     16  O        -43.7030  -12.6510   92.2380 O.2   253  ASN253     -0.2867
     17  CB       -43.9210  -10.1070   90.3440 C.3   253  ASN253      0.1155
     18  CG       -43.3170   -9.6480   89.0160 C.2   253  ASN253      0.2627
     19  OD1      -42.7570  -10.4510   88.2580 O.2   253  ASN253     -0.2716
     20  ND2      -43.4220   -8.3570   88.7340 N.am  253  ASN253     -0.0877
     21  N        -42.2480  -14.9640   93.0910 N.3   257  ILE257     -0.1245
     22  CA       -41.5300  -14.7850   94.3540 C.3   257  ILE257      0.1561
     23  C        -41.8750  -15.8380   95.4090 C.2   257  ILE257      0.2260
     24  O        -40.9920  -16.3270   96.1190 O.2   257  ILE257     -0.2867
     25  CB       -41.7880  -13.3760   94.9540 C.3   257  ILE257      0.0252
     26  CG1      -41.1290  -12.3050   94.0760 C.3   257  ILE257      0.0019
     27  CG2      -41.2430  -13.3050   96.3780 C.3   257  ILE257      0.0019
     28  CD1      -41.3210  -10.8790   94.5860 C.3   257  ILE257      0.0001
     29  N        -30.8700    1.4680   86.0030 N.3   292  TYR292     -0.1227
     30  CA       -30.9800    1.7730   87.4240 C.3   292  TYR292      0.1736
     31  C        -32.2710    1.2820   88.0520 C.2   292  TYR292      0.2595
     32  O        -33.3220    1.3060   87.4240 O.2   292  TYR292     -0.2718
     33  CB       -30.9310    3.2890   87.6430 C.3   292  TYR292      0.0548
     34  CG       -29.6820    3.9340   87.1290 C.ar  292  TYR292     -0.0200
     35  CD1      -29.5000    4.1690   85.7720 C.ar  292  TYR292     -0.0009
     36  CD2      -28.6380    4.2380   88.0000 C.ar  292  TYR292     -0.0009
     37  CE1      -28.2940    4.6930   85.2900 C.ar  292  TYR292      0.0417
     38  CE2      -27.4380    4.7530   87.5300 C.ar  292  TYR292      0.0417
     39  CZ       -27.2690    4.9760   86.1800 C.ar  292  TYR292      0.1957
     40  OH       -26.0590    5.4600   85.7390 O.3   292  TYR292     -0.2866
     41  N        -32.1880    0.8750   89.3100 N.am  293  ARG293     -0.1966
     42  CA       -33.3710    0.4370   90.0320 C.3   293  ARG293      0.1729
     43  C        -33.2660    0.8580   91.4830 C.2   293  ARG293      0.2616
     44  O        -32.2330    0.6470   92.1240 O.2   293  ARG293     -0.2715
     45  CB       -33.5390   -1.0830   89.9810 C.3   293  ARG293      0.0348
     46  CG       -34.6820   -1.5670   90.8740 C.3   293  ARG293      0.0492
     47  CD       -34.8880   -3.0840   90.8440 C.3   293  ARG293      0.2205
     48  NE       -35.8930   -3.4790   91.8280 N.pl3 293  ARG293     -0.0865
     49  CZ       -37.2020   -3.2840   91.6900 C.cat 293  ARG293      0.5346
     50  NH1      -37.6840   -2.7100   90.5910 N.pl3 293  ARG293      0.1354
     51  NH2      -38.0340   -3.6210   92.6730 N.pl3 293  ARG293      0.1354
     52  N        -34.3280    1.4720   91.9940 N.am  294  ARG294     -0.1977
     53  CA       -34.3570    1.8570   93.3940 C.3   294  ARG294      0.1597
     54  C        -35.1340    0.7410   94.1050 C.2   294  ARG294      0.2287
     55  O        -36.3450    0.5680   93.9050 O.2   294  ARG294     -0.2864
     56  CB       -35.0180    3.2280   93.5650 C.3   294  ARG294      0.0334
     57  CG       -34.1420    4.3750   93.0360 C.3   294  ARG294      0.0492
     58  CD       -34.3490    5.6490   93.8290 C.3   294  ARG294      0.2205
     59  NE       -33.2630    6.6190   93.6810 N.pl3 294  ARG294     -0.0865
     60  CZ       -32.9200    7.1880   92.5350 C.cat 294  ARG294      0.5346
     61  NH1      -33.5820    6.8680   91.4340 N.pl3 294  ARG294      0.1354
     62  NH2      -31.9430    8.0960   92.4920 N.pl3 294  ARG294      0.1354
     63  N        -36.6080   -1.5650   97.3600 N.3   296  GLY296     -0.1210
     64  CA       -37.1790   -1.4060   98.6840 C.3   296  GLY296      0.1940
     65  C        -36.3410   -2.2790   99.6050 C.2   296  GLY296      0.2454
     66  O        -35.6380   -3.1580   99.1180 O.2   296  GLY296     -0.2732
     67  N        -36.3940   -2.0840  100.9310 N.am  297  PRO297     -0.2717
     68  CA       -35.6090   -2.8830  101.8840 C.3   297  PRO297      0.1535
     69  C        -35.7890   -4.4080  101.8410 C.2   297  PRO297      0.2598
     70  O        -34.8490   -5.1540  102.1250 O.2   297  PRO297     -0.2715
     71  CB       -36.0050   -2.2910  103.2380 C.3   297  PRO297      0.0310
     72  CG       -37.4130   -1.8060  102.9990 C.3   297  PRO297      0.0237
     73  CD       -37.3060   -1.1640  101.6390 C.3   297  PRO297      0.0939
     74  N        -36.9870   -4.8650  101.4820 N.am  298  GLN298     -0.1964
     75  CA       -37.2790   -6.2980  101.4250 C.3   298  GLN298      0.1733
     76  C        -36.4540   -7.0470  100.3860 C.2   298  GLN298      0.2616
     77  O        -36.2080   -8.2460  100.5280 O.2   298  GLN298     -0.2715
     78  CB       -38.7650   -6.5300  101.1500 C.3   298  GLN298      0.0408
     79  CG       -39.6900   -6.0820  102.2690 C.3   298  GLN298      0.0908
     80  CD       -41.1590   -6.2320  101.8980 C.2   298  GLN298      0.2608
     81  OE1      -42.0500   -5.9540  102.7050 O.2   298  GLN298     -0.2717
     82  NE2      -41.4190   -6.6720  100.6670 N.am  298  GLN298     -0.0878
     83  N        -36.0280   -6.3490   99.3400 N.am  299  GLU299     -0.1977
     84  CA       -35.2280   -6.9880   98.3070 C.3   299  GLU299      0.1602
     85  C        -33.8950   -7.4430   98.8810 C.2   299  GLU299      0.2287
     86  O        -33.2310   -8.3130   98.3280 O.2   299  GLU299     -0.2864
     87  CB       -35.0090   -6.0260   97.1370 C.3   299  GLU299      0.0415
     88  CG       -36.2350   -5.8990   96.2550 C.3   299  GLU299      0.1163
     89  CD       -36.1350   -4.7700   95.2590 C.2   299  GLU299      0.3649
     90  OE1      -35.1570   -4.7440   94.4820 O.co2 299  GLU299     -0.2457
     91  OE2      -37.0430   -3.9110   95.2570 O.co2 299  GLU299     -0.2457
     92  N        -38.4230   -1.2680  106.7510 N.3   304  LEU304     -0.1245
     93  CA       -38.2290    0.1450  107.0430 C.3   304  LEU304      0.1561
     94  C        -38.0020    0.3760  108.5310 C.2   304  LEU304      0.2260
     95  O        -37.7010    1.4920  108.9560 O.2   304  LEU304     -0.2867
     96  CB       -39.4280    0.9670  106.5620 C.3   304  LEU304      0.0270
     97  CG       -39.6490    0.9970  105.0450 C.3   304  LEU304      0.0019
     98  CD1      -40.1640   -0.3560  104.5760 C.3   304  LEU304      0.0001
     99  CD2      -40.6430    2.0880  104.6930 C.3   304  LEU304      0.0001
    100  N        -27.0070  -11.8150   93.8380 N.3   329  ILE329     -0.1231
    101  CA       -28.3980  -11.9060   94.2620 C.3   329  ILE329      0.1692
    102  C        -29.2620  -12.3050   93.0640 C.2   329  ILE329      0.2593
    103  O        -29.0220  -11.8570   91.9330 O.2   329  ILE329     -0.2718
    104  CB       -28.9130  -10.5610   94.8570 C.3   329  ILE329      0.0266
    105  CG1      -30.3800  -10.7050   95.2710 C.3   329  ILE329      0.0019
    106  CG2      -28.7670   -9.4390   93.8470 C.3   329  ILE329      0.0020
    107  CD1      -30.9560   -9.4770   95.9560 C.3   329  ILE329      0.0001
    108  N        -30.2550  -13.1530   93.3200 N.am  330  THR330     -0.1939
    109  CA       -31.1650  -13.6330   92.2880 C.3   330  THR330      0.2028
    110  C        -32.5870  -13.1250   92.5120 C.2   330  THR330      0.2642
    111  O        -33.0970  -13.1420   93.6350 O.2   330  THR330     -0.2714
    112  CB       -31.2160  -15.1770   92.2590 C.3   330  THR330      0.1808
    113  OG1      -29.9080  -15.6940   91.9900 O.3   330  THR330     -0.2208
    114  CG2      -32.1860  -15.6680   91.1800 C.3   330  THR330      0.0379
    115  N        -33.2170  -12.6750   91.4330 N.am  331  TYR331     -0.1960
    116  CA       -34.5890  -12.1790   91.4750 C.3   331  TYR331      0.1756
    117  C        -35.4650  -13.1770   90.7200 C.2   331  TYR331      0.2461
    118  O        -35.3000  -13.3580   89.5130 O.2   331  TYR331     -0.2730
    119  CB       -34.6950  -10.8140   90.7820 C.3   331  TYR331      0.0574
    120  CG       -34.2720   -9.6250   91.6170 C.ar  331  TYR331     -0.0198
    121  CD1      -35.2190   -8.8240   92.2540 C.ar  331  TYR331     -0.0009
    122  CD2      -32.9280   -9.2900   91.7570 C.ar  331  TYR331     -0.0009
    123  CE1      -34.8320   -7.7090   93.0100 C.ar  331  TYR331      0.0417
    124  CE2      -32.5310   -8.1880   92.5060 C.ar  331  TYR331      0.0417
    125  CZ       -33.4850   -7.4000   93.1300 C.ar  331  TYR331      0.1957
    126  OH       -33.0860   -6.3070   93.8660 O.3   331  TYR331     -0.2866
    127  N        -36.3990  -13.8420   91.4200 N.am  332  PRO332     -0.2716
    128  CA       -37.3010  -14.8230   90.7960 C.3   332  PRO332      0.1536
    129  C        -38.3390  -14.1450   89.8990 C.2   332  PRO332      0.2599
    130  O        -38.8230  -14.7260   88.9240 O.2   332  PRO332     -0.2715
    131  CB       -37.9620  -15.5070   91.9990 C.3   332  PRO332      0.0310
    132  CG       -36.9820  -15.2640   93.1280 C.3   332  PRO332      0.0237
    133  CD       -36.5450  -13.8550   92.8830 C.3   332  PRO332      0.0939
    134  N        -38.6810  -12.9090   90.2510 N.am  333  ASN333     -0.1959
    135  CA       -39.6570  -12.1210   89.5110 C.3   333  ASN333      0.1819
    136  C        -39.0040  -11.3670   88.3540 C.2   333  ASN333      0.2621
    137  O        -37.7690  -11.3130   88.2460 O.2   333  ASN333     -0.2715
    138  CB       -40.3050  -11.1070   90.4630 C.3   333  ASN333      0.1195
    139  CG       -39.2670  -10.2520   91.1950 C.2   333  ASN333      0.2630
    140  OD1      -38.3820  -10.7780   91.8710 O.2   333  ASN333     -0.2716
    141  ND2      -39.3700   -8.9380   91.0570 N.am  333  ASN333     -0.0877
    142  N        -39.8370  -10.8070   87.4760 N.am  334  PHE334     -0.1960
    143  CA       -39.3300   -9.9920   86.3830 C.3   334  PHE334      0.1771
    144  C        -38.9000   -8.7130   87.0900 C.2   334  PHE334      0.2619
    145  O        -39.5440   -8.2860   88.0510 O.2   334  PHE334     -0.2715
    146  CB       -40.4280   -9.6630   85.3580 C.3   334  PHE334      0.0574
    147  CG       -40.8060  -10.8280   84.4780 C.ar  334  PHE334     -0.0200
    148  CD1      -41.8640  -11.6670   84.8200 C.ar  334  PHE334     -0.0042
    149  CD2      -40.0820  -11.0990   83.3200 C.ar  334  PHE334     -0.0042
    150  CE1      -42.1950  -12.7620   84.0150 C.ar  334  PHE334     -0.0003
    151  CE2      -40.4070  -12.1940   82.5090 C.ar  334  PHE334     -0.0003
    152  CZ       -41.4620  -13.0230   82.8580 C.ar  334  PHE334     -0.0000
    153  N        -37.8180   -8.0970   86.6360 N.am  335  ILE335     -0.1963
    154  CA       -37.3720   -6.8820   87.2920 C.3   335  ILE335      0.1727
    155  C        -37.3770   -5.6720   86.3790 C.2   335  ILE335      0.2617
    156  O        -36.7290   -5.6420   85.3290 O.2   335  ILE335     -0.2715
    157  CB       -35.9780   -7.0860   87.9740 C.3   335  ILE335      0.0290
    158  CG1      -35.1400   -5.8150   87.8650 C.3   335  ILE335      0.0022
    159  CG2      -35.2850   -8.3110   87.4100 C.3   335  ILE335      0.0023
    160  CD1      -33.9200   -5.8280   88.7320 C.3   335  ILE335      0.0001
    161  N        -38.1440   -4.6730   86.7870 N.am  336  SER336     -0.1936
    162  CA       -38.2530   -3.4470   86.0260 C.3   336  SER336      0.2055
    163  C        -37.1520   -2.5070   86.4960 C.2   336  SER336      0.2644
    164  O        -36.8470   -2.4210   87.6920 O.2   336  SER336     -0.2714
    165  CB       -39.6320   -2.8190   86.2340 C.3   336  SER336      0.2130
    166  OG       -39.8620   -2.5740   87.6030 O.3   336  SER336     -0.2179
    167  N        -36.5460   -1.8190   85.5390 N.am  337  THR337     -0.1936
    168  CA       -35.4650   -0.8940   85.8210 C.3   337  THR337      0.2028
    169  C        -35.6850    0.3250   84.9400 C.2   337  THR337      0.2642
    170  O        -36.5220    0.3040   84.0400 O.2   337  THR337     -0.2714
    171  CB       -34.0890   -1.5280   85.4650 C.3   337  THR337      0.1808
    172  OG1      -34.0190   -1.7640   84.0500 O.3   337  THR337     -0.2208
    173  CG2      -33.9060   -2.8640   86.1840 C.3   337  THR337      0.0379
    174  N        -34.9340    1.3860   85.1980 N.am  338  SER338     -0.1949
    175  CA       -35.0460    2.5980   84.4030 C.3   338  SER338      0.1924
    176  C        -33.7140    2.8990   83.7110 C.2   338  SER338      0.2314
    177  O        -32.6480    2.5520   84.2260 O.2   338  SER338     -0.2863
    178  CB       -35.4280    3.7770   85.3020 C.3   338  SER338      0.2116
    179  OG       -35.4770    4.9790   84.5520 O.3   338  SER338     -0.2180
    180  N        -40.2320    6.9130   95.2140 N.3   347  PHE347     -0.1241
    181  CA       -38.9760    6.1770   95.3560 C.3   347  PHE347      0.1605
    182  C        -38.0770    7.0020   96.2620 C.2   347  PHE347      0.2264
    183  O        -36.9510    6.6090   96.5630 O.2   347  PHE347     -0.2867
    184  CB       -38.2790    6.0070   94.0050 C.3   347  PHE347      0.0534
    185  CG       -39.0010    5.1060   93.0540 C.ar  347  PHE347     -0.0203
    186  CD1      -38.8150    5.2430   91.6840 C.ar  347  PHE347     -0.0042
    187  CD2      -39.8670    4.1240   93.5220 C.ar  347  PHE347     -0.0042
    188  CE1      -39.4810    4.4210   90.7920 C.ar  347  PHE347     -0.0003
    189  CE2      -40.5400    3.2960   92.6400 C.ar  347  PHE347     -0.0003
    190  CZ       -40.3470    3.4460   91.2710 C.ar  347  PHE347     -0.0000
    191  N        -36.6640    5.1730   99.2240 N.3   350  ARG350     -0.1245
    192  CA       -35.7860    4.0300   99.0050 C.3   350  ARG350      0.1563
    193  C        -34.3430    4.4680   99.1350 C.2   350  ARG350      0.2260
    194  O        -33.9390    5.4950   98.5940 O.2   350  ARG350     -0.2867
    195  CB       -36.0690    3.4050   97.6450 C.3   350  ARG350      0.0307
    196  CG       -37.5230    3.0290   97.5430 C.3   350  ARG350      0.0489
    197  CD       -37.8210    2.1350   96.3910 C.3   350  ARG350      0.2205
    198  NE       -39.1750    1.6120   96.5240 N.pl3 350  ARG350     -0.0865
    199  CZ       -39.7290    0.7690   95.6660 C.cat 350  ARG350      0.5346
    200  NH1      -39.0370    0.3540   94.6140 N.pl3 350  ARG350      0.1354
    201  NH2      -40.9730    0.3460   95.8570 N.pl3 350  ARG350      0.1354
    202  N        -41.8530    6.3990   82.4260 N.3   376  GLU376     -0.1245
    203  CA       -41.1700    5.3750   83.1980 C.3   376  GLU376      0.1567
    204  C        -39.7830    5.0270   82.6690 C.2   376  GLU376      0.2260
    205  O        -38.9240    4.5940   83.4400 O.2   376  GLU376     -0.2867
    206  CB       -42.0300    4.1170   83.2570 C.3   376  GLU376      0.0388
    207  CG       -43.3270    4.3260   84.0000 C.3   376  GLU376      0.1160
    208  CD       -44.0760    3.0350   84.2290 C.2   376  GLU376      0.3649
    209  OE1      -44.5470    2.4380   83.2440 O.co2 376  GLU376     -0.2457
    210  OE2      -44.1860    2.6170   85.3960 O.co2 376  GLU376     -0.2457
    211  N        -38.7920    2.6140   81.2110 N.3   378  GLU378     -0.1245
    212  CA       -38.6140    1.2600   81.7090 C.3   378  GLU378      0.1567
    213  C        -37.9850    0.1960   80.8110 C.2   378  GLU378      0.2260
    214  O        -38.3420    0.0420   79.6400 O.2   378  GLU378     -0.2867
    215  CB       -39.9720    0.7500   82.1970 C.3   378  GLU378      0.0388
    216  CG       -39.9250   -0.5530   82.9720 C.3   378  GLU378      0.1160
    217  CD       -41.3070   -1.0370   83.3720 C.2   378  GLU378      0.3649
    218  OE1      -41.4060   -1.9800   84.1820 O.co2 378  GLU378     -0.2457
    219  OE2      -42.2990   -0.4790   82.8680 O.co2 378  GLU378     -0.2457
@<TRIPOS>BOND
     1   214   213    2
     2   213   212    1
     3   211   212    1
     4   212   215    1
     5   215   216    1
     6   202   203    1
     7   151   152   ar
     8   151   149   ar
     9   204   203    1
    10   204   205    2
    11   152   150   ar
    12   219   217   ar
    13   216   217    1
    14   203   206    1
    15   209   208   ar
    16   206   207    1
    17   149   147   ar
    18   217   218   ar
    19   176   177    2
    20   176   175    1
    21   207   208    1
    22   150   148   ar
    23   170   169    2
    24   172   171    1
    25   208   210   ar
    26   175   174    1
    27   175   178    1
    28   147   148   ar
    29   147   146    1
    30   179   178    1
    31   169   174   am
    32   169   168    1
    33    37    35   ar
    34    37    39   ar
    35   156   155    2
    36   146   143    1
    37   171   168    1
    38   171   173    1
    39   167   168    1
    40   167   163   am
    41    40    39    1
    42    35    34   ar
    43    29    30    1
    44   162   165    1
    45   162   163    1
    46   162   161    1
    47    39    38   ar
    48   165   166    1
    49   155   161   am
    50   155   154    1
    51   143   144    1
    52   143   142    1
    53   163   164    2
    54     1     2    1
    55   153   144   am
    56   153   154    1
    57     7     9   ar
    58     7     6   ar
    59     5     2    1
    60     5     6    1
    61   144   145    2
    62    34    33    1
    63    34    36   ar
    64     2     3    1
    65   154   157    1
    66   159   157    1
    67    32    31    2
    68    30    33    1
    69    30    31    1
    70   142   136   am
    71    38    36   ar
    72     9    11   ar
    73     6     8   ar
    74   158   157    1
    75   158   160    1
    76    31    41   am
    77   137   136    2
    78    19    18    2
    79   136   135    1
    80     3     4    2
    81    20    18   am
    82   130   129    2
    83    11    12    1
    84    11    10   ar
    85    18    17    1
    86     8    10   ar
    87    41    42    1
    88    13    14    1
    89   135   134    1
    90   135   138    1
    91   118   117    2
    92   129   134   am
    93   129   128    1
    94    45    42    1
    95    45    46    1
    96    42    43    1
    97    14    17    1
    98    14    15    1
    99   138   139    1
   100    50    49    1
   101   117   127   am
   102   117   116    1
   103   119   116    1
   104   119   120    1
   105   188   190   ar
   106   188   186   ar
   107   128   127    1
   108   128   131    1
   109    47    46    1
   110    47    48    1
   111   141   139   am
   112   114   112    1
   113   139   140    2
   114   190   189   ar
   115   127   133    1
   116   115   116    1
   117   115   110   am
   118    61    60    1
   119    43    52   am
   120    43    44    2
   121   120   122   ar
   122   120   121   ar
   123    15    16    2
   124   186   185   ar
   125    49    48    2
   126    49    51    1
   127   122   124   ar
   128   103   102    2
   129   113   112    1
   130    52    53    1
   131   131   132    1
   132   121   123   ar
   133   112   109    1
   134   109   110    1
   135   109   108    1
   136    62    60    1
   137   124   125   ar
   138   110   111    2
   139    60    59    2
   140   189   187   ar
   141   133   132    1
   142   123   125   ar
   143    57    56    1
   144    57    58    1
   145   185   187   ar
   146   185   184    1
   147   102   108   am
   148   102   101    1
   149    21    22    1
   150   125   126    1
   151    53    56    1
   152    53    54    1
   153    59    58    1
   154   100   101    1
   155   106   104    1
   156    55    54    2
   157   184   181    1
   158    26    28    1
   159    26    25    1
   160   101   104    1
   161    22    25    1
   162    22    23    1
   163    90    89   ar
   164   200   199    1
   165   104   105    1
   166    25    27    1
   167   180   181    1
   168    91    89   ar
   169    89    88    1
   170   105   107    1
   171   181   182    1
   172    23    24    2
   173   199   201    1
   174   199   198    2
   175    88    87    1
   176   182   183    2
   177   197   198    1
   178   197   196    1
   179    87    84    1
   180    63    64    1
   181   196   195    1
   182   195   192    1
   183    84    85    1
   184    84    83    1
   185    86    85    2
   186   194   193    2
   187    64    65    1
   188   192   193    1
   189   192   191    1
   190    66    65    2
   191    83    76   am
   192    65    67   am
   193    76    77    2
   194    76    75    1
   195    82    80   am
   196    67    73    1
   197    67    68    1
   198    78    75    1
   199    78    79    1
   200    75    74    1
   201    74    69   am
   202    73    72    1
   203    69    68    1
   204    69    70    2
   205    68    71    1
   206    80    79    1
   207    80    81    2
   208    72    71    1
   209    98    97    1
   210    99    97    1
   211    97    96    1
   212    96    93    1
   213    92    93    1
   214    93    94    1
   215    94    95    2
