@<TRIPOS>MOLECULE
tmp/1gisA00.pdb
 143 139 0 0 0
SMALL
GASTEIGER

@<TRIPOS>ATOM
      1  N         12.3990   -0.6970  112.9710 N.3    71  TYR71      -0.1227
      2  CA        13.4560   -0.4090  113.9430 C.3    71  TYR71       0.1736
      3  C         13.3740    1.0340  114.4540 C.2    71  TYR71       0.2595
      4  O         13.0750    1.9510  113.6940 O.2    71  TYR71      -0.2718
      5  CB        14.8390   -0.5520  113.3060 C.3    71  TYR71       0.0548
      6  CG        15.4320   -1.9300  113.2910 C.ar   71  TYR71      -0.0200
      7  CD1       14.6350   -3.0690  113.3020 C.ar   71  TYR71      -0.0009
      8  CD2       16.8190   -2.0940  113.2340 C.ar   71  TYR71      -0.0009
      9  CE1       15.2100   -4.3450  113.2570 C.ar   71  TYR71       0.0417
     10  CE2       17.3980   -3.3520  113.2000 C.ar   71  TYR71       0.0417
     11  CZ        16.5890   -4.4730  113.2110 C.ar   71  TYR71       0.1957
     12  OH        17.1810   -5.7230  113.1940 O.3    71  TYR71      -0.2866
     13  N         13.6840    1.2550  115.7270 N.am   72  ILE72      -0.1966
     14  CA        13.7180    2.6380  116.2280 C.3    72  ILE72       0.1727
     15  C         15.0720    3.2460  115.8300 C.2    72  ILE72       0.2616
     16  O         16.1140    2.6590  116.0970 O.2    72  ILE72      -0.2715
     17  CB        13.5710    2.6570  117.7690 C.3    72  ILE72       0.0290
     18  CG1       12.1350    2.2730  118.1340 C.3    72  ILE72       0.0022
     19  CG2       13.8840    4.0310  118.3440 C.3    72  ILE72       0.0023
     20  CD1       11.8370    2.3640  119.6340 C.3    72  ILE72       0.0001
     21  N         15.0540    4.4320  115.2010 N.am   73  MET73      -0.1977
     22  CA        16.2880    5.1070  114.7740 C.3    73  MET73       0.1605
     23  C         16.8230    6.0130  115.8740 C.2    73  MET73       0.2287
     24  O         18.0350    6.1270  116.0720 O.2    73  MET73      -0.2864
     25  CB        16.0320    5.9520  113.5190 C.3    73  MET73       0.0413
     26  CG        15.4750    5.1600  112.3240 C.3    73  MET73       0.0598
     27  SD        16.7460    4.0760  111.6200 S.3    73  MET73      -0.1393
     28  CE        16.4940    2.5640  112.5410 C.3    73  MET73       0.0692
     29  N         20.6450    6.0710  117.5920 N.3    84  PHE84      -0.1241
     30  CA        21.4680    4.8890  117.8170 C.3    84  PHE84       0.1605
     31  C         22.7270    4.9810  116.9620 C.2    84  PHE84       0.2264
     32  O         22.7440    5.6330  115.9060 O.2    84  PHE84      -0.2867
     33  CB        20.7090    3.6400  117.4280 C.3    84  PHE84       0.0534
     34  CG        19.7410    3.1970  118.4510 C.ar   84  PHE84      -0.0203
     35  CD1       18.3760    3.1150  118.1470 C.ar   84  PHE84      -0.0042
     36  CD2       20.1820    2.8200  119.7140 C.ar   84  PHE84      -0.0042
     37  CE1       17.4720    2.6580  119.0860 C.ar   84  PHE84      -0.0003
     38  CE2       19.2940    2.3560  120.6790 C.ar   84  PHE84      -0.0003
     39  CZ        17.9250    2.2710  120.3650 C.ar   84  PHE84      -0.0000
     40  N         24.2630    3.3060  114.6190 N.3    86  GLN86      -0.1245
     41  CA        24.1770    2.2700  113.6080 C.3    86  GLN86       0.1566
     42  C         23.9140    2.9350  112.2750 C.2    86  GLN86       0.2260
     43  O         23.3050    3.9890  112.1980 O.2    86  GLN86      -0.2867
     44  CB        23.0990    1.2430  113.9390 C.3    86  GLN86       0.0367
     45  CG        21.6620    1.7130  113.9510 C.3    86  GLN86       0.0905
     46  CD        20.7390    0.6710  114.6080 C.2    86  GLN86       0.2608
     47  OE1       20.5200    0.6870  115.8140 O.2    86  GLN86      -0.2717
     48  NE2       20.2220   -0.2500  113.8090 N.am   86  GLN86      -0.0878
     49  N         24.1830    0.5400  119.3540 N.3   109  SER109     -0.1202
     50  CA        23.1810    0.3610  118.2920 C.3   109  SER109      0.2020
     51  C         21.9290   -0.1060  119.0650 C.2   109  SER109      0.2619
     52  O         21.9720   -0.2460  120.2860 O.2   109  SER109     -0.2717
     53  CB        23.6080   -0.7540  117.3330 C.3   109  SER109      0.2103
     54  OG        23.7130   -1.9950  118.0370 O.3   109  SER109     -0.2182
     55  N         20.8090   -0.3240  118.3820 N.am  110  GLY110     -0.1942
     56  CA        19.6320   -0.7770  119.1200 C.3   110  GLY110      0.2014
     57  C         19.5400   -2.2880  119.1950 C.2   110  GLY110      0.2639
     58  O         18.4870   -2.8540  119.5010 O.2   110  GLY110     -0.2714
     59  N         20.6260   -2.9950  118.9340 N.am  111  ASN111     -0.1958
     60  CA        20.4790   -4.4360  119.0070 C.3   111  ASN111      0.1819
     61  C         20.3780   -4.9070  120.4600 C.2   111  ASN111      0.2621
     62  O         21.0410   -4.3980  121.3680 O.2   111  ASN111     -0.2715
     63  CB        21.5790   -5.1180  118.2240 C.3   111  ASN111      0.1195
     64  CG        22.7280   -5.5120  119.0560 C.2   111  ASN111      0.2630
     65  OD1       22.8000   -6.6290  119.6150 O.2   111  ASN111     -0.2716
     66  ND2       23.6690   -4.6020  119.1580 N.am  111  ASN111     -0.0877
     67  N         19.4730   -5.8430  120.6950 N.am  112  TYR112     -0.1974
     68  CA        19.2810   -6.3100  122.0590 C.3   112  TYR112      0.1639
     69  C         20.5290   -6.8130  122.7590 C.2   112  TYR112      0.2290
     70  O         20.6440   -6.6280  123.9610 O.2   112  TYR112     -0.2864
     71  CB        18.2360   -7.4170  122.1220 C.3   112  TYR112      0.0560
     72  CG        16.8180   -6.9760  121.8610 C.ar  112  TYR112     -0.0198
     73  CD1       16.2590   -5.8950  122.5510 C.ar  112  TYR112     -0.0009
     74  CD2       16.0050   -7.7020  120.9800 C.ar  112  TYR112     -0.0009
     75  CE1       14.9000   -5.5550  122.3680 C.ar  112  TYR112      0.0417
     76  CE2       14.6710   -7.3720  120.7930 C.ar  112  TYR112      0.0417
     77  CZ        14.1230   -6.3000  121.4880 C.ar  112  TYR112      0.1957
     78  OH        12.7870   -5.9860  121.3040 O.3   112  TYR112     -0.2866
     79  N         11.3080   -0.1590  122.6530 N.3   156  ILE156     -0.1245
     80  CA        11.3190   -1.0090  121.4640 C.3   156  ILE156      0.1561
     81  C         10.2640   -2.1070  121.5710 C.2   156  ILE156      0.2260
     82  O          9.5110   -2.3580  120.6290 O.2   156  ILE156     -0.2867
     83  CB        12.7210   -1.6360  121.2900 C.3   156  ILE156      0.0252
     84  CG1       13.7180   -0.5270  120.9180 C.3   156  ILE156      0.0019
     85  CG2       12.6790   -2.7840  120.3200 C.3   156  ILE156      0.0019
     86  CD1       15.1650   -0.9920  121.0280 C.3   156  ILE156      0.0001
     87  N          7.9120   -1.3860  118.4290 N.3   160  SER160     -0.1202
     88  CA         8.3660   -2.2920  117.3760 C.3   160  SER160      0.2020
     89  C          7.8430   -3.7210  117.5240 C.2   160  SER160      0.2618
     90  O          7.3080   -4.2850  116.5790 O.2   160  SER160     -0.2717
     91  CB         9.9100   -2.3650  117.3820 C.3   160  SER160      0.2103
     92  OG        10.5230   -1.0790  117.3570 O.3   160  SER160     -0.2182
     93  N          8.0330   -4.3240  118.6990 N.am  161  GLU161     -0.1979
     94  CA         7.6200   -5.7220  118.8590 C.3   161  GLU161      0.1602
     95  C          6.0930   -5.8840  118.9240 C.2   161  GLU161      0.2287
     96  O          5.5450   -6.8270  118.3500 O.2   161  GLU161     -0.2864
     97  CB         8.2930   -6.3710  120.0830 C.3   161  GLU161      0.0415
     98  CG         9.8500   -6.2270  120.1020 C.3   161  GLU161      0.1163
     99  CD        10.5810   -7.0410  119.0250 C.2   161  GLU161      0.3649
    100  OE1       11.8340   -7.0840  119.0750 O.co2 161  GLU161     -0.2457
    101  OE2        9.9300   -7.6190  118.1260 O.co2 161  GLU161     -0.2457
    102  N          4.7320   -5.8470  115.5170 N.3   164  ARG164     -0.1245
    103  CA         4.9820   -7.0940  114.8030 C.3   164  ARG164      0.1563
    104  C          4.1620   -8.3010  115.2450 C.2   164  ARG164      0.2260
    105  O          3.9700   -9.2280  114.4440 O.2   164  ARG164     -0.2867
    106  CB         6.4600   -7.4810  114.9270 C.3   164  ARG164      0.0307
    107  CG         7.4030   -6.5270  114.2690 C.3   164  ARG164      0.0489
    108  CD         8.8140   -6.7740  114.8270 C.3   164  ARG164      0.2205
    109  NE         9.7670   -5.7990  114.3050 N.pl3 164  ARG164     -0.0865
    110  CZ        10.9210   -5.5180  114.8970 C.cat 164  ARG164      0.5346
    111  NH1       11.7520   -4.6280  114.3830 N.pl3 164  ARG164      0.1354
    112  NH2       11.2310   -6.1210  116.0280 N.pl3 164  ARG164      0.1354
    113  N         10.2740  -12.2540  119.6040 N.3   190  GLU190     -0.1231
    114  CA        11.1830  -11.1600  119.2550 C.3   190  GLU190      0.1699
    115  C         12.4010  -11.7040  118.5310 C.2   190  GLU190      0.2592
    116  O         12.8130  -11.1740  117.4910 O.2   190  GLU190     -0.2718
    117  CB        11.6480  -10.4020  120.5050 C.3   190  GLU190      0.0402
    118  CG        10.4610   -9.8640  121.2650 C.3   190  GLU190      0.1161
    119  CD        10.8320   -9.2130  122.5850 C.2   190  GLU190      0.3649
    120  OE1       11.9320   -9.5050  123.1280 O.co2 190  GLU190     -0.2457
    121  OE2       10.0050   -8.4280  123.0940 O.co2 190  GLU190     -0.2457
    122  N         12.9380  -12.7990  119.0540 N.am  191  ASN191     -0.1974
    123  CA        14.1410  -13.3750  118.4690 C.3   191  ASN191      0.1688
    124  C         13.9290  -13.9440  117.0750 C.2   191  ASN191      0.2292
    125  O         14.8430  -13.9610  116.2580 O.2   191  ASN191     -0.2864
    126  CB        14.6750  -14.5500  119.3040 C.3   191  ASN191      0.1181
    127  CG        15.2450  -14.1450  120.6690 C.2   191  ASN191      0.2629
    128  OD1       15.5750  -12.9960  120.9220 O.2   191  ASN191     -0.2716
    129  ND2       15.3940  -15.1440  121.5450 N.am  191  ASN191     -0.0877
    130  N         11.5000  -13.0620  114.6560 N.3   193  TRP193     -0.1241
    131  CA        10.7760  -12.3230  113.6290 C.3   193  TRP193      0.1605
    132  C         11.3520  -12.4260  112.2160 C.2   193  TRP193      0.2264
    133  O         10.6270  -12.6110  111.2490 O.2   193  TRP193     -0.2867
    134  CB        10.6570  -10.8590  114.0240 C.3   193  TRP193      0.0550
    135  CG         9.7690  -10.0830  113.0970 C.ar  193  TRP193      0.0003
    136  CD1        8.4650  -10.3470  112.7940 C.ar  193  TRP193      0.0946
    137  CD2       10.1170   -8.9020  112.3980 C.ar  193  TRP193      0.0152
    138  NE1        7.9700   -9.3850  111.9420 N.ar  193  TRP193     -0.2442
    139  CE2        8.9700   -8.4840  111.6870 C.ar  193  TRP193      0.0810
    140  CE3       11.2890   -8.1410  112.3110 C.ar  193  TRP193      0.0012
    141  CZ2        8.9600   -7.3320  110.8900 C.ar  193  TRP193      0.0191
    142  CZ3       11.2800   -6.9910  111.5250 C.ar  193  TRP193      0.0001
    143  CH2       10.1170   -6.6010  110.8260 C.ar  193  TRP193      0.0015
@<TRIPOS>BOND
     1   143   141   ar
     2   143   142   ar
     3   141   139   ar
     4   133   132    2
     5   142   140   ar
     6    27    26    1
     7    27    28    1
     8   139   138   ar
     9   139   137   ar
    10   138   136   ar
    11    43    42    2
    12   132   131    1
    13    42    41    1
    14   140   137   ar
    15    26    25    1
    16   137   135   ar
    17   136   135   ar
    18     1     2    1
    19   135   134    1
    20    12    11    1
    21    10    11   ar
    22    10     8   ar
    23    11     9   ar
    24     8     6   ar
    25     9     7   ar
    26     6     7   ar
    27     6     5    1
    28     5     2    1
    29    25    22    1
    30    41    44    1
    31    41    40    1
    32   131   134    1
    33   131   130    1
    34     4     3    2
    35    48    46   am
    36    44    45    1
    37     2     3    1
    38    45    46    1
    39   107   108    1
    40   107   106    1
    41   109   108    1
    42   109   110    2
    43   111   110    1
    44   105   104    2
    45     3    13   am
    46    46    47    2
    47    22    21    1
    48    22    23    1
    49   103   106    1
    50   103   104    1
    51   103   102    1
    52   110   112    1
    53    21    15   am
    54    13    14    1
    55    15    16    2
    56    15    14    1
    57    23    24    2
    58    32    31    2
    59    14    17    1
    60   125   124    2
    61    90    89    2
    62    31    30    1
    63   124   123    1
    64    53    54    1
    65    53    50    1
    66    92    91    1
    67    88    91    1
    68    88    89    1
    69    88    87    1
    70    33    30    1
    71    33    34    1
    72   116   115    2
    73    89    93   am
    74    29    30    1
    75    17    18    1
    76    17    19    1
    77   101    99   ar
    78    18    20    1
    79    35    34   ar
    80    35    37   ar
    81    63    60    1
    82    63    64    1
    83    50    51    1
    84    50    49    1
    85    96    95    2
    86    55    51   am
    87    55    56    1
    88    34    36   ar
    89   123   122    1
    90   123   126    1
    91   115   122   am
    92   115   114    1
    93    93    94    1
    94    94    95    1
    95    94    97    1
    96    59    60    1
    97    59    57   am
    98    60    61    1
    99    99   100   ar
   100    99    98    1
   101    64    66   am
   102    64    65    2
   103    51    52    2
   104    37    39   ar
   105    56    57    1
   106    57    58    2
   107   114   113    1
   108   114   117    1
   109   126   127    1
   110    36    38   ar
   111    97    98    1
   112    85    83    1
   113    39    38   ar
   114    61    67   am
   115    61    62    2
   116   117   118    1
   117    82    81    2
   118   127   128    2
   119   127   129   am
   120    67    68    1
   121    76    74   ar
   122    76    77   ar
   123    84    86    1
   124    84    83    1
   125    74    72   ar
   126   118   119    1
   127    83    80    1
   128    78    77    1
   129    80    81    1
   130    80    79    1
   131    77    75   ar
   132    72    71    1
   133    72    73   ar
   134    68    71    1
   135    68    69    1
   136    75    73   ar
   137   119   121   ar
   138   119   120   ar
   139    69    70    2
