@<TRIPOS>MOLECULE
tmp/1giuA00.pdb
 96 93 0 0 0
SMALL
GASTEIGER

@<TRIPOS>ATOM
      1  N         10.5460   -1.4930   32.6140 N.3    69  VAL69      -0.1231
      2  CA        10.0600   -1.0840   33.9290 C.3    69  VAL69       0.1692
      3  C         11.2140   -0.8510   34.9380 C.2    69  VAL69       0.2592
      4  O         10.9910   -0.8340   36.1650 O.2    69  VAL69      -0.2718
      5  CB         9.0610   -2.0780   34.5680 C.3    69  VAL69       0.0266
      6  CG1        7.9650   -1.2740   35.2540 C.3    69  VAL69       0.0020
      7  CG2        8.4280   -2.9710   33.5140 C.3    69  VAL69       0.0020
      8  N         12.4270   -0.6340   34.4290 N.am   70  TYR70      -0.1962
      9  CA        13.5420   -0.3660   35.3830 C.3    70  TYR70       0.1771
     10  C         13.5720    1.0960   35.9000 C.2    70  TYR70       0.2619
     11  O         13.5670    2.0200   35.1220 O.2    70  TYR70      -0.2715
     12  CB        14.9360   -0.6010   34.7730 C.3    70  TYR70       0.0574
     13  CG        15.4610   -1.9750   34.8960 C.ar   70  TYR70      -0.0198
     14  CD1       16.7710   -2.1970   35.3890 C.ar   70  TYR70      -0.0009
     15  CD2       14.7750   -3.0480   34.3020 C.ar   70  TYR70      -0.0009
     16  CE1       17.4040   -3.4550   35.2630 C.ar   70  TYR70       0.0417
     17  CE2       15.3670   -4.3030   34.1660 C.ar   70  TYR70       0.0417
     18  CZ        16.6830   -4.5180   34.6410 C.ar   70  TYR70       0.1957
     19  OH        17.2510   -5.8040   34.4970 O.3    70  TYR70      -0.2866
     20  N         13.6770    1.3000   37.2090 N.am   71  ILE71      -0.1977
     21  CA        13.7650    2.6710   37.6960 C.3    71  ILE71       0.1596
     22  C         15.2280    3.1410   37.3770 C.2    71  ILE71       0.2287
     23  O         16.2110    2.4270   37.6820 O.2    71  ILE71      -0.2864
     24  CB        13.5200    2.6970   39.2040 C.3    71  ILE71       0.0276
     25  CG1       12.0260    2.4710   39.4590 C.3    71  ILE71       0.0022
     26  CG2       14.0360    4.0480   39.8060 C.3    71  ILE71       0.0022
     27  CD1       11.6680    2.3930   40.9640 C.3    71  ILE71       0.0001
     28  N         20.8950    6.1670   39.0570 N.3    83  PHE83      -0.1241
     29  CA        21.7100    4.9810   39.3050 C.3    83  PHE83       0.1605
     30  C         22.9780    5.1000   38.4690 C.2    83  PHE83       0.2264
     31  O         23.0030    5.7810   37.4710 O.2    83  PHE83      -0.2867
     32  CB        20.9310    3.7760   38.8770 C.3    83  PHE83       0.0534
     33  CG        19.9330    3.3540   39.8810 C.ar   83  PHE83      -0.0203
     34  CD1       20.3540    3.2030   41.2010 C.ar   83  PHE83      -0.0042
     35  CD2       18.6010    3.0570   39.5140 C.ar   83  PHE83      -0.0042
     36  CE1       19.4590    2.7580   42.1700 C.ar   83  PHE83      -0.0003
     37  CE2       17.7090    2.6090   40.4660 C.ar   83  PHE83      -0.0003
     38  CZ        18.1410    2.4640   41.7860 C.ar   83  PHE83      -0.0000
     39  N         21.2250    0.0800   39.6230 N.3   109  GLY109     -0.1210
     40  CA        20.1700   -0.2310   40.6170 C.3   109  GLY109      0.1956
     41  C         19.8550   -1.7200   40.7550 C.2   109  GLY109      0.2612
     42  O         18.7400   -2.0310   41.0390 O.2   109  GLY109     -0.2717
     43  N         20.7980   -2.6490   40.6020 N.am  110  ASN110     -0.1960
     44  CA        20.4150   -4.0960   40.6840 C.3   110  ASN110      0.1819
     45  C         20.3660   -4.6570   42.1050 C.2   110  ASN110      0.2621
     46  O         21.0260   -4.1520   42.9980 O.2   110  ASN110     -0.2715
     47  CB        21.3030   -4.9650   39.8070 C.3   110  ASN110      0.1195
     48  CG        22.6510   -5.2410   40.4240 C.2   110  ASN110      0.2630
     49  OD1       22.9300   -4.8320   41.5500 O.2   110  ASN110     -0.2716
     50  ND2       23.4940   -5.9660   39.7050 N.am  110  ASN110     -0.0877
     51  N         19.5560   -5.6880   42.3320 N.am  111  TYR111     -0.1974
     52  CA        19.4140   -6.2060   43.6780 C.3   111  TYR111      0.1639
     53  C         20.6210   -6.7040   44.3820 C.2   111  TYR111      0.2290
     54  O         20.7320   -6.5090   45.5910 O.2   111  TYR111     -0.2864
     55  CB        18.3860   -7.3490   43.7280 C.3   111  TYR111      0.0560
     56  CG        16.9490   -6.8900   43.5370 C.ar  111  TYR111     -0.0198
     57  CD1       16.4270   -5.7870   44.2460 C.ar  111  TYR111     -0.0009
     58  CD2       16.0880   -7.6280   42.7060 C.ar  111  TYR111     -0.0009
     59  CE1       15.0530   -5.4540   44.1150 C.ar  111  TYR111      0.0417
     60  CE2       14.7500   -7.2990   42.5660 C.ar  111  TYR111      0.0417
     61  CZ        14.2260   -6.2250   43.2570 C.ar  111  TYR111      0.1957
     62  OH        12.9160   -5.9340   42.9950 O.3   111  TYR111     -0.2866
     63  N         11.3270   -0.0580   44.3430 N.3   155  ILE155     -0.1245
     64  CA        11.3320   -0.9430   43.1770 C.3   155  ILE155      0.1561
     65  C         10.2550   -2.0140   43.2990 C.2   155  ILE155      0.2260
     66  O          9.4760   -2.2640   42.3730 O.2   155  ILE155     -0.2867
     67  CB        12.7130   -1.6430   43.0640 C.3   155  ILE155      0.0252
     68  CG1       13.7770   -0.5900   42.5850 C.3   155  ILE155      0.0019
     69  CG2       12.6490   -2.7660   42.0520 C.3   155  ILE155      0.0019
     70  CD1       15.2800   -0.9700   43.0040 C.3   155  ILE155      0.0001
     71  N          7.7830   -1.2250   40.0430 N.3   159  SER159     -0.1202
     72  CA         8.1330   -2.1670   38.9940 C.3   159  SER159      0.2020
     73  C          7.6980   -3.5960   39.2120 C.2   159  SER159      0.2618
     74  O          7.1270   -4.2010   38.2940 O.2   159  SER159     -0.2717
     75  CB         9.6570   -2.2070   38.7490 C.3   159  SER159      0.2103
     76  OG        10.1810   -0.9160   38.5210 O.3   159  SER159     -0.2182
     77  N          7.9710   -4.1810   40.3810 N.am  160  GLU160     -0.1979
     78  CA         7.6200   -5.6110   40.4900 C.3   160  GLU160      0.1602
     79  C          6.1150   -5.7820   40.5670 C.2   160  GLU160      0.2287
     80  O          5.5460   -6.7840   40.0550 O.2   160  GLU160     -0.2864
     81  CB         8.3000   -6.2750   41.7110 C.3   160  GLU160      0.0415
     82  CG         9.8830   -6.0950   41.7830 C.3   160  GLU160      0.1163
     83  CD        10.6470   -6.8810   40.6800 C.2   160  GLU160      0.3649
     84  OE1       11.8150   -7.0700   40.8680 O.co2 160  GLU160     -0.2457
     85  OE2       10.0750   -7.3070   39.6430 O.co2 160  GLU160     -0.2457
     86  N          4.7840   -5.6960   37.0990 N.3   163  ARG163     -0.1245
     87  CA         5.0890   -6.9720   36.3980 C.3   163  ARG163      0.1563
     88  C          4.2190   -8.1820   36.7960 C.2   163  ARG163      0.2260
     89  O          3.9240   -9.0570   35.9360 O.2   163  ARG163     -0.2867
     90  CB         6.5460   -7.3350   36.6230 C.3   163  ARG163      0.0307
     91  CG         7.5110   -6.3630   35.8670 C.3   163  ARG163      0.0489
     92  CD         8.9220   -6.5100   36.5180 C.3   163  ARG163      0.2205
     93  NE         9.9060   -5.6300   35.8890 N.pl3 163  ARG163     -0.0865
     94  CZ        10.9700   -5.1440   36.5090 C.cat 163  ARG163      0.5346
     95  NH1       11.1840   -5.4630   37.7680 N.pl3 163  ARG163      0.1354
     96  NH2       11.8090   -4.3290   35.8760 N.pl3 163  ARG163      0.1354
@<TRIPOS>BOND
     1     1     2    1
     2     7     5    1
     3     2     5    1
     4     2     3    1
     5    17    15   ar
     6    17    18   ar
     7    15    13   ar
     8     8     3   am
     9     8     9    1
    10    19    18    1
    11     5     6    1
    12    18    16   ar
    13    12    13    1
    14    12     9    1
    15    13    14   ar
    16     3     4    2
    17    11    10    2
    18    16    14   ar
    19     9    10    1
    20    91    92    1
    21    91    90    1
    22    96    94    1
    23    93    94    2
    24    93    92    1
    25    10    20   am
    26    89    88    2
    27    87    90    1
    28    87    88    1
    29    87    86    1
    30    94    95    1
    31    20    21    1
    32    22    23    2
    33    22    21    1
    34    31    30    2
    35    21    24    1
    36    74    73    2
    37    30    29    1
    38    76    75    1
    39    75    72    1
    40    32    29    1
    41    32    33    1
    42    72    73    1
    43    72    71    1
    44    28    29    1
    45    24    25    1
    46    24    26    1
    47    73    77   am
    48    25    27    1
    49    35    33   ar
    50    35    37   ar
    51    39    40    1
    52    85    83   ar
    53    50    48   am
    54    47    48    1
    55    47    44    1
    56    33    34   ar
    57    80    79    2
    58    77    78    1
    59    48    49    2
    60    37    38   ar
    61    78    79    1
    62    78    81    1
    63    43    44    1
    64    43    41   am
    65    40    41    1
    66    83    84   ar
    67    83    82    1
    68    44    45    1
    69    41    42    2
    70    34    36   ar
    71    81    82    1
    72    38    36   ar
    73    69    67    1
    74    45    51   am
    75    45    46    2
    76    51    52    1
    77    66    65    2
    78    60    58   ar
    79    60    61   ar
    80    68    70    1
    81    68    67    1
    82    58    56   ar
    83    62    61    1
    84    67    64    1
    85    64    65    1
    86    64    63    1
    87    61    59   ar
    88    56    55    1
    89    56    57   ar
    90    52    55    1
    91    52    53    1
    92    59    57   ar
    93    53    54    2
