@<TRIPOS>MOLECULE
tmp/1gj4B00.pdb
 192 194 0 0 0
SMALL
GASTEIGER

@<TRIPOS>ATOM
      1  N         14.1160   -7.9120    9.3670 N.3    27  LEU27      -0.1231
      2  CA        15.2130   -8.3490   10.2370 C.3    27  LEU27       0.1693
      3  C         14.8600   -8.0200   11.6730 C.2    27  LEU27       0.2592
      4  O         14.7230   -8.8790   12.5070 O.2    27  LEU27      -0.2718
      5  CB        16.4630   -7.6030    9.8370 C.3    27  LEU27       0.0284
      6  CG        17.6210   -8.6070    9.7660 C.3    27  LEU27       0.0019
      7  CD1       17.3920   -9.6100    8.5750 C.3    27  LEU27       0.0001
      8  CD2       18.9270   -7.8270    9.6160 C.3    27  LEU27       0.0001
      9  N         14.7120   -6.7670   11.9360 N.am   28  CYS28      -0.1970
     10  CA        14.3830   -6.2970   13.3070 C.3    28  CYS28       0.1712
     11  C         13.5780   -5.0270   13.1800 C.2    28  CYS28       0.2296
     12  O         13.2100   -4.6240   12.0940 O.2    28  CYS28      -0.2864
     13  CB        15.6820   -6.0000   14.0430 C.3    28  CYS28       0.0983
     14  SG        16.6730   -7.3570   14.6600 S.3    28  CYS28      -0.0798
     15  N         22.5540   -7.1060   18.4980 N.3    43  HIS43      -0.1226
     16  CA        22.4010   -8.5200   18.0270 C.3    43  HIS43       0.1752
     17  C         21.6230   -8.5580   16.7060 C.2    43  HIS43       0.2596
     18  O         21.6030   -9.5540   16.0060 O.2    43  HIS43      -0.2718
     19  CB        21.6560   -9.3970   19.1370 C.3    43  HIS43       0.0759
     20  CG        20.0910   -9.4020   19.1640 C.ar   43  HIS43       0.0818
     21  ND1       19.3360   -8.8520   20.0710 N.ar   43  HIS43      -0.2268
     22  CD2       19.2150  -10.0010   18.2880 C.ar   43  HIS43       0.1154
     23  CE1       18.0830   -9.0770   19.7720 C.ar   43  HIS43       0.1986
     24  NE2       17.9840   -9.7840   18.7050 N.ar   43  HIS43      -0.2212
     25  N         20.9810   -7.4780   16.3770 N.am   44  CYS44      -0.1970
     26  CA        20.2320   -7.4750   15.1100 C.3    44  CYS44       0.1712
     27  C         21.2510   -7.3730   14.0030 C.2    44  CYS44       0.2296
     28  O         20.9950   -7.7170   12.8670 O.2    44  CYS44      -0.2864
     29  CB        19.3740   -6.2980   15.0280 C.3    44  CYS44       0.0983
     30  SG        17.8550   -6.4460   16.0000 S.3    44  CYS44      -0.0798
     31  N         25.8360  -11.2690   15.4140 N.3    47  TYR47      -0.1241
     32  CA        25.5740  -12.3670   16.3550 C.3    47  TYR47       0.1605
     33  C         26.3320  -13.6030   15.8380 C.2    47  TYR47       0.2264
     34  O         25.7430  -14.4560   15.1990 O.2    47  TYR47      -0.2867
     35  CB        24.0770  -12.6330   16.4290 C.3    47  TYR47       0.0534
     36  CG        23.8480  -13.5750   17.6130 C.ar   47  TYR47      -0.0201
     37  CD1       24.2740  -13.2140   18.8780 C.ar   47  TYR47      -0.0009
     38  CD2       23.2280  -14.7800   17.4560 C.ar   47  TYR47      -0.0009
     39  CE1       24.0920  -14.0330   19.9550 C.ar   47  TYR47       0.0417
     40  CE2       23.0490  -15.6000   18.5450 C.ar   47  TYR47       0.0417
     41  CZ        23.4810  -15.2300   19.7940 C.ar   47  TYR47       0.1957
     42  OH        23.2970  -16.0450   20.8790 O.3    47  TYR47      -0.2866
     43  N         25.4950  -17.4030   15.3230 N.3    50  TRP50      -0.1241
     44  CA        24.6870  -17.7650   14.1010 C.3    50  TRP50       0.1605
     45  C         25.2280  -17.0320   12.8920 C.2    50  TRP50       0.2264
     46  O         24.4750  -16.6180   12.0340 O.2    50  TRP50      -0.2867
     47  CB        23.2600  -17.3570   14.2900 C.3    50  TRP50       0.0550
     48  CG        22.6230  -18.0370   15.4910 C.ar   50  TRP50       0.0003
     49  CD1       23.0750  -19.0580   16.2950 C.ar   50  TRP50       0.0946
     50  CD2       21.3840  -17.7100   15.9560 C.ar   50  TRP50       0.0152
     51  NE1       22.1630  -19.3120   17.1970 N.ar   50  TRP50      -0.2442
     52  CE2       21.1090  -18.5500   17.0380 C.ar   50  TRP50       0.0810
     53  CE3       20.4580  -16.7670   15.5310 C.ar   50  TRP50       0.0012
     54  CZ2       19.8940  -18.4250   17.7170 C.ar   50  TRP50       0.0191
     55  CZ3       19.2450  -16.6510   16.2010 C.ar   50  TRP50       0.0001
     56  CH2       18.9590  -17.4750   17.2980 C.ar   50  TRP50       0.0015
     57  N         26.0340  -14.1060   12.0650 N.3    52  LYS52      -0.1245
     58  CA        25.2630  -12.8980   11.6660 C.3    52  LYS52       0.1561
     59  C         26.2310  -11.7420   11.8090 C.2    52  LYS52       0.2260
     60  O         26.7720  -11.5510   12.8700 O.2    52  LYS52      -0.2867
     61  CB        24.0850  -12.7870   12.6030 C.3    52  LYS52       0.0271
     62  CG        22.8230  -12.8730   11.7550 C.3    52  LYS52       0.0035
     63  CD        21.5700  -12.9910   12.6590 C.3    52  LYS52       0.0206
     64  CE        21.0310  -11.6150   12.7720 C.3    52  LYS52       0.1093
     65  NZ        19.8220  -11.3220   11.8970 N.3    52  LYS52      -0.1314
     66  N          3.7980   -9.7040   25.0840 N.3   192  ASP192     -0.1225
     67  CA         5.2610   -9.8730   25.0990 C.3   192  ASP192      0.1805
     68  C          5.7880   -9.5940   23.7100 C.2   192  ASP192      0.2598
     69  O          5.0320   -9.5740   22.7610 O.2   192  ASP192     -0.2718
     70  CB         5.6470  -11.3520   25.5170 C.3   192  ASP192      0.1424
     71  CG         7.1510  -11.4620   25.8630 C.2   192  ASP192      0.3668
     72  OD1        7.7460  -10.4550   26.1960 O.co2 192  ASP192     -0.2456
     73  OD2        7.6510  -12.5690   25.7860 O.co2 192  ASP192     -0.2456
     74  N          7.0650   -9.3820   23.5950 N.am  193  ALA193     -0.1966
     75  CA         7.6060   -9.1330   22.2470 C.3   193  ALA193      0.1728
     76  C          7.9200  -10.5760   21.8600 C.2   193  ALA193      0.2616
     77  O          7.7460  -11.4690   22.6680 O.2   193  ALA193     -0.2715
     78  CB         8.9210   -8.3800   22.2560 C.3   193  ALA193      0.0334
     79  N          8.3800  -10.7420   20.6630 N.am  194  CYS194     -0.1954
     80  CA         8.7240  -12.0820   20.1580 C.3   194  CYS194      0.1843
     81  C          9.6920  -11.9020   18.9840 C.2   194  CYS194      0.2625
     82  O         10.1130  -10.7880   18.7070 O.2   194  CYS194     -0.2714
     83  CB         7.4550  -12.7860   19.6940 C.3   194  CYS194      0.0997
     84  SG         7.6630  -14.5610   19.5290 S.3   194  CYS194     -0.0797
     85  N          9.9930  -12.9940   18.3470 N.am  195  GLU195     -0.1963
     86  CA        10.9110  -12.9580   17.1910 C.3   195  GLU195      0.1733
     87  C         10.4710  -11.8850   16.1900 C.2   195  GLU195      0.2616
     88  O          9.3070  -11.8190   15.8410 O.2   195  GLU195     -0.2715
     89  CB        10.9210  -14.3110   16.4060 C.3   195  GLU195      0.0429
     90  CG        12.3240  -14.9150   16.3840 C.3   195  GLU195      0.1163
     91  CD        12.4070  -15.9690   15.3490 C.2   195  GLU195      0.3649
     92  OE1       13.0770  -15.7440   14.3320 O.co2 195  GLU195     -0.2457
     93  OE2       11.8960  -17.0000   15.3530 O.co2 195  GLU195     -0.2457
     94  N         11.3820  -11.0750   15.7550 N.am  196  GLY196     -0.1955
     95  CA        11.0130  -10.0240   14.7640 C.3   196  GLY196      0.1869
     96  C         10.8410   -8.6760   15.3530 C.2   196  GLY196      0.2309
     97  O         10.8880   -7.6950   14.6320 O.2   196  GLY196     -0.2863
     98  N         12.7450   -7.6490   17.9750 N.3   198  SER198     -0.1217
     99  CA        14.0770   -7.1920   18.4820 C.3   198  SER198      0.1889
    100  C         14.4740   -5.8200   17.9270 C.2   198  SER198      0.2288
    101  O         14.0410   -5.4920   16.8440 O.2   198  SER198     -0.2866
    102  CB        15.2150   -8.1560   18.0660 C.3   198  SER198      0.2089
    103  OG        15.1940   -9.2990   18.9150 O.3   198  SER198     -0.2183
    104  N         14.2600   -3.6460   22.6890 N.3   218  VAL218     -0.1231
    105  CA        13.8410   -5.0650   22.8220 C.3   218  VAL218      0.1692
    106  C         15.1390   -5.8410   22.6810 C.2   218  VAL218      0.2593
    107  O         15.8090   -5.7560   21.6600 O.2   218  VAL218     -0.2718
    108  CB        12.8330   -5.3600   21.7040 C.3   218  VAL218      0.0266
    109  CG1       12.3280   -6.7850   21.8360 C.3   218  VAL218      0.0020
    110  CG2       11.6180   -4.4210   21.9150 C.3   218  VAL218      0.0020
    111  N         15.4860   -6.5720   23.6930 N.am  219  SER219     -0.1938
    112  CA        16.7320   -7.3310   23.6170 C.3   219  SER219      0.2055
    113  C         16.5130   -8.8120   23.6190 C.2   219  SER219      0.2643
    114  O         16.7810   -9.4270   22.6050 O.2   219  SER219     -0.2714
    115  CB        17.5810   -6.8910   24.7830 C.3   219  SER219      0.2130
    116  OG        18.8930   -7.3880   24.5210 O.3   219  SER219     -0.2179
    117  N         16.0450   -9.3790   24.6860 N.am  220  TRP220     -0.1959
    118  CA        15.8590  -10.8420   24.6500 C.3   220  TRP220      0.1771
    119  C         14.8700  -11.3660   25.6660 C.2   220  TRP220      0.2620
    120  O         14.4670  -10.6910   26.5870 O.2   220  TRP220     -0.2715
    121  CB        17.2480  -11.5160   24.8560 C.3   220  TRP220      0.0590
    122  CG        17.9160  -11.1620   26.1860 C.ar  220  TRP220      0.0006
    123  CD1       18.8430  -10.1770   26.4150 C.ar  220  TRP220      0.0946
    124  CD2       17.7150  -11.8170   27.3850 C.ar  220  TRP220      0.0152
    125  NE1       19.1670  -10.2380   27.6850 N.ar  220  TRP220     -0.2442
    126  CE2       18.5390  -11.2090   28.3120 C.ar  220  TRP220      0.0810
    127  CE3       16.9170  -12.8900   27.7710 C.ar  220  TRP220      0.0012
    128  CZ2       18.5450  -11.6670   29.6170 C.ar  220  TRP220      0.0191
    129  CZ3       16.9270  -13.3480   29.0790 C.ar  220  TRP220      0.0001
    130  CH2       17.7420  -12.7230   30.0020 C.ar  220  TRP220      0.0015
    131  N         14.4790  -12.5870   25.4720 N.am  221  GLY221     -0.1940
    132  CA        13.5200  -13.2270   26.3880 C.3   221  GLY221      0.2014
    133  C         13.7210  -14.6980   26.0950 C.2   221  GLY221      0.2639
    134  O         14.5150  -15.0210   25.2350 O.2   221  GLY221     -0.2714
    135  N         13.0120  -15.5290   26.7950 N.am  222  GLU222     -0.1963
    136  CA        13.1210  -16.9960   26.6020 C.3   222  GLU222      0.1733
    137  C         11.7120  -17.4080   26.1960 C.2   222  GLU222      0.2617
    138  O         10.8270  -17.5760   27.0210 O.2   222  GLU222     -0.2715
    139  CB        13.5750  -17.6330   27.9510 C.3   222  GLU222      0.0429
    140  CG        15.0140  -17.0450   28.3430 C.3   222  GLU222      0.1163
    141  CD        15.4650  -17.3510   29.8160 C.2   222  GLU222      0.3649
    142  OE1       14.7350  -16.9650   30.7120 O.co2 222  GLU222     -0.2457
    143  OE2       16.5200  -17.9470   29.9660 O.co2 222  GLU222     -0.2457
    144  N         11.5340  -17.5280   24.9130 N.am  223  GLY223     -0.1940
    145  CA        10.2020  -17.9250   24.3770 C.3   223  GLY223      0.2014
    146  C          9.3880  -16.6310   24.2190 C.2   223  GLY223      0.2639
    147  O          9.9250  -15.5450   24.3880 O.2   223  GLY223     -0.2714
    148  N          8.1310  -16.7410   23.9010 N.am  224  CYS224     -0.1967
    149  CA         7.2920  -15.5420   23.7410 C.3   224  CYS224      0.1712
    150  C          6.0020  -15.7330   24.5610 C.2   224  CYS224      0.2296
    151  O          5.2200  -16.6230   24.2920 O.2   224  CYS224     -0.2864
    152  CB         6.9890  -15.3630   22.2760 C.3   224  CYS224      0.0983
    153  SG         8.4780  -15.1680   21.2730 S.3   224  CYS224     -0.0798
    154  N          9.9820  -13.2940   31.3810 N.3   230  TYR230     -0.1227
    155  CA         9.8210  -11.8690   30.9710 C.3   230  TYR230      0.1736
    156  C         10.7210  -11.5350   29.7880 C.2   230  TYR230      0.2596
    157  O         11.4540  -12.3770   29.3090 O.2   230  TYR230     -0.2718
    158  CB        10.2070  -10.9350   32.1410 C.3   230  TYR230      0.0548
    159  CG         9.4810  -11.4390   33.3770 C.ar  230  TYR230     -0.0200
    160  CD1        8.2210  -10.9870   33.6180 C.ar  230  TYR230     -0.0009
    161  CD2       10.0600  -12.3650   34.2300 C.ar  230  TYR230     -0.0009
    162  CE1        7.5300  -11.4630   34.7010 C.ar  230  TYR230      0.0417
    163  CE2        9.3580  -12.8370   35.3120 C.ar  230  TYR230      0.0417
    164  CZ         8.0970  -12.3850   35.5360 C.ar  230  TYR230      0.1957
    165  OH         7.3590  -12.8610   36.5850 O.3   230  TYR230     -0.2866
    166  N         10.6160  -10.2920   29.3830 N.am  231  GLY231     -0.1942
    167  CA        11.4010   -9.7580   28.2580 C.3   231  GLY231      0.2014
    168  C         12.3770   -8.8480   28.9400 C.2   231  GLY231      0.2639
    169  O         12.0410   -8.2650   29.9660 O.2   231  GLY231     -0.2714
    170  N         13.5290   -8.7590   28.3430 N.am  232  PHE232     -0.1959
    171  CA        14.6350   -7.9380   28.8290 C.3   232  PHE232      0.1771
    172  C         14.8970   -6.8710   27.7740 C.2   232  PHE232      0.2619
    173  O         14.8120   -7.1680   26.5850 O.2   232  PHE232     -0.2715
    174  CB        15.9300   -8.8100   29.0240 C.3   232  PHE232      0.0574
    175  CG        15.6560   -9.7160   30.2380 C.ar  232  PHE232     -0.0200
    176  CD1       15.0050  -10.9190   30.0850 C.ar  232  PHE232     -0.0042
    177  CD2       16.0040   -9.2990   31.5030 C.ar  232  PHE232     -0.0042
    178  CE1       14.6940  -11.6970   31.1860 C.ar  232  PHE232     -0.0003
    179  CE2       15.6940  -10.0690   32.5980 C.ar  232  PHE232     -0.0003
    180  CZ        15.0320  -11.2690   32.4450 C.ar  232  PHE232     -0.0000
    181  N         15.2130   -5.6770   28.2350 N.am  233  TYR233     -0.1974
    182  CA        15.4880   -4.5370   27.2820 C.3   233  TYR233      0.1639
    183  C         16.7780   -3.8030   27.6020 C.2   233  TYR233      0.2290
    184  O         17.1580   -3.7310   28.7460 O.2   233  TYR233     -0.2864
    185  CB        14.3420   -3.5340   27.3750 C.3   233  TYR233      0.0560
    186  CG        12.9880   -4.1820   27.1180 C.ar  233  TYR233     -0.0198
    187  CD1       12.4280   -4.9600   28.0890 C.ar  233  TYR233     -0.0009
    188  CD2       12.3100   -4.0130   25.9380 C.ar  233  TYR233     -0.0009
    189  CE1       11.2130   -5.5510   27.8930 C.ar  233  TYR233      0.0417
    190  CE2       11.0930   -4.6180   25.7500 C.ar  233  TYR233      0.0417
    191  CZ        10.5460   -5.3820   26.7280 C.ar  233  TYR233      0.1957
    192  OH         9.3450   -5.9960   26.5070 O.3   233  TYR233     -0.2866
@<TRIPOS>BOND
     1     7     6    1
     2     1     2    1
     3     8     6    1
     4     6     5    1
     5     5     2    1
     6     2     3    1
     7    58    59    1
     8    58    57    1
     9    58    61    1
    10     3     9   am
    11     3     4    2
    12    62    61    1
    13    62    63    1
    14    59    60    2
    15    65    64    1
    16     9    10    1
    17    46    45    2
    18    12    11    2
    19    63    64    1
    20    28    27    2
    21    45    44    1
    22    11    10    1
    23    10    13    1
    24    27    26    1
    25    13    14    1
    26    44    47    1
    27    44    43    1
    28    47    48    1
    29    92    91   ar
    30    97    96    2
    31    14    30    1
    32    95    96    1
    33    95    94    1
    34    29    26    1
    35    29    30    1
    36    26    25    1
    37    34    33    2
    38    91    93   ar
    39    91    90    1
    40    31    32    1
    41    48    50   ar
    42    48    49   ar
    43    53    50   ar
    44    53    55   ar
    45    94    87   am
    46    33    32    1
    47    88    87    2
    48    50    52   ar
    49    18    17    2
    50    87    86    1
    51    55    56   ar
    52    49    51   ar
    53    32    35    1
    54    25    17   am
    55    90    89    1
    56    89    86    1
    57    35    36    1
    58    17    16    1
    59   101   100    2
    60    52    51   ar
    61    52    54   ar
    62    86    85    1
    63    56    54   ar
    64    38    36   ar
    65    38    40   ar
    66    36    37   ar
    67   100    99    1
    68    98    99    1
    69    16    15    1
    70    16    19    1
    71   102    99    1
    72   102   103    1
    73    22    24   ar
    74    22    20   ar
    75    85    81   am
    76    40    41   ar
    77    24    23   ar
    78    82    81    2
    79    37    39   ar
    80    81    80    1
    81    19    20    1
    82    20    21   ar
    83    84    83    1
    84    84   153    1
    85    83    80    1
    86    23    21   ar
    87    41    39   ar
    88    41    42    1
    89    80    79    1
    90    79    76   am
    91   153   152    1
    92   107   106    2
    93   108   109    1
    94   108   110    1
    95   108   105    1
    96    76    75    1
    97    76    77    2
    98    75    78    1
    99    75    74    1
   100   152   149    1
   101   114   113    2
   102   106   105    1
   103   106   111   am
   104   104   105    1
   105    69    68    2
   106    74    68   am
   107   112   113    1
   108   112   111    1
   109   112   115    1
   110   113   117   am
   111    68    67    1
   112   149   148    1
   113   149   150    1
   114   148   146   am
   115   146   145    1
   116   146   147    2
   117   151   150    2
   118   145   144    1
   119   116   115    1
   120   118   117    1
   121   118   121    1
   122   118   119    1
   123   121   122    1
   124   144   137   am
   125    66    67    1
   126    67    70    1
   127   134   133    2
   128   131   119   am
   129   131   132    1
   130    70    71    1
   131   119   120    2
   132   190   188   ar
   133   190   191   ar
   134    73    71   ar
   135    71    72   ar
   136   188   186   ar
   137   133   132    1
   138   133   135   am
   139   122   123   ar
   140   122   124   ar
   141   137   136    1
   142   137   138    2
   143   123   125   ar
   144   192   191    1
   145   173   172    2
   146   136   135    1
   147   136   139    1
   148   191   189   ar
   149   186   185    1
   150   186   187   ar
   151   182   185    1
   152   182   183    1
   153   182   181    1
   154   124   127   ar
   155   124   126   ar
   156   183   184    2
   157   125   126   ar
   158   127   129   ar
   159   172   181   am
   160   172   171    1
   161   189   187   ar
   162   139   140    1
   163   167   168    1
   164   167   166    1
   165   126   128   ar
   166   170   171    1
   167   170   168   am
   168   140   141    1
   169   171   174    1
   170   168   169    2
   171   174   175    1
   172   129   130   ar
   173   157   156    2
   174   166   156   am
   175   128   130   ar
   176   156   155    1
   177   141   143   ar
   178   141   142   ar
   179   176   175   ar
   180   176   178   ar
   181   175   177   ar
   182   155   154    1
   183   155   158    1
   184   178   180   ar
   185   177   179   ar
   186   158   159    1
   187   180   179   ar
   188   159   160   ar
   189   159   161   ar
   190   160   162   ar
   191   161   163   ar
   192   162   164   ar
   193   163   164   ar
   194   164   165    1
