@<TRIPOS>MOLECULE
tmp/1gj5B00.pdb
 171 171 0 0 0
SMALL
GASTEIGER

@<TRIPOS>ATOM
      1  N         14.1770   -7.7880    9.2880 N.3    27  LEU27      -0.1231
      2  CA        15.2600   -8.2730   10.1440 C.3    27  LEU27       0.1693
      3  C         14.9660   -7.9310   11.6100 C.2    27  LEU27       0.2592
      4  O         14.9860   -8.7960   12.4580 O.2    27  LEU27      -0.2718
      5  CB        16.5460   -7.6070    9.7650 C.3    27  LEU27       0.0284
      6  CG        17.6570   -8.5920   10.0320 C.3    27  LEU27       0.0019
      7  CD1       17.6320   -9.6460    8.8460 C.3    27  LEU27       0.0001
      8  CD2       18.9860   -7.8470   10.1020 C.3    27  LEU27       0.0001
      9  N         14.6880   -6.6920   11.8890 N.am   28  CYS28      -0.1970
     10  CA        14.4100   -6.2550   13.2670 C.3    28  CYS28       0.1712
     11  C         13.6290   -4.9520   13.2370 C.2    28  CYS28       0.2296
     12  O         13.2660   -4.4520   12.1900 O.2    28  CYS28      -0.2864
     13  CB        15.7570   -6.0090   14.0210 C.3    28  CYS28       0.0983
     14  SG        16.7170   -7.3940   14.6690 S.3    28  CYS28      -0.0798
     15  N         22.5190   -6.9660   18.4860 N.3    43  HIS43      -0.1226
     16  CA        22.4550   -8.3900   18.0650 C.3    43  HIS43       0.1752
     17  C         21.7070   -8.5490   16.7510 C.2    43  HIS43       0.2596
     18  O         21.6680   -9.6320   16.2020 O.2    43  HIS43      -0.2718
     19  CB        21.7530   -9.2650   19.1210 C.3    43  HIS43       0.0759
     20  CG        20.2130   -9.3900   19.1410 C.ar   43  HIS43       0.0818
     21  ND1       19.4250   -8.8340   20.0240 N.ar   43  HIS43      -0.2268
     22  CD2       19.3930  -10.1070   18.2900 C.ar   43  HIS43       0.1154
     23  CE1       18.2080   -9.1630   19.7720 C.ar   43  HIS43       0.1986
     24  NE2       18.1600   -9.9380   18.7230 N.ar   43  HIS43      -0.2212
     25  N         21.1340   -7.4700   16.2910 N.am   44  CYS44      -0.1970
     26  CA        20.3940   -7.5220   15.0230 C.3    44  CYS44       0.1712
     27  C         21.3970   -7.4380   13.9120 C.2    44  CYS44       0.2296
     28  O         21.1570   -7.9030   12.8180 O.2    44  CYS44      -0.2864
     29  CB        19.4260   -6.3410   14.9470 C.3    44  CYS44       0.0983
     30  SG        17.9480   -6.4470   15.9390 S.3    44  CYS44      -0.0798
     31  N         25.8450  -11.1740   15.4440 N.3    47  TYR47      -0.1241
     32  CA        25.5550  -12.2780   16.3720 C.3    47  TYR47       0.1605
     33  C         26.3300  -13.4710   15.8020 C.2    47  TYR47       0.2264
     34  O         25.7760  -14.2850   15.0910 O.2    47  TYR47      -0.2867
     35  CB        24.0460  -12.5350   16.4240 C.3    47  TYR47       0.0534
     36  CG        23.8120  -13.4070   17.6490 C.ar   47  TYR47      -0.0201
     37  CD1       24.2490  -12.9910   18.9080 C.ar   47  TYR47      -0.0009
     38  CD2       23.1770  -14.6130   17.5060 C.ar   47  TYR47      -0.0009
     39  CE1       24.0440  -13.7970   20.0020 C.ar   47  TYR47       0.0417
     40  CE2       22.9770  -15.4070   18.5930 C.ar   47  TYR47       0.0417
     41  CZ        23.4080  -15.0070   19.8450 C.ar   47  TYR47       0.1957
     42  OH        23.1970  -15.8460   20.9210 O.3    47  TYR47      -0.2866
     43  N         25.4520  -17.3690   15.2730 N.3    50  TRP50      -0.1241
     44  CA        24.6440  -17.7430   14.0740 C.3    50  TRP50       0.1605
     45  C         25.1480  -17.0270   12.8320 C.2    50  TRP50       0.2264
     46  O         24.4100  -16.7530   11.9130 O.2    50  TRP50      -0.2867
     47  CB        23.1820  -17.3770   14.2830 C.3    50  TRP50       0.0550
     48  CG        22.5830  -18.0690   15.4960 C.ar   50  TRP50       0.0003
     49  CD1       23.0230  -19.1550   16.1910 C.ar   50  TRP50       0.0946
     50  CD2       21.4470  -17.6610   16.0910 C.ar   50  TRP50       0.0152
     51  NE1       22.1660  -19.3680   17.1630 N.ar   50  TRP50      -0.2442
     52  CE2       21.1810  -18.5000   17.1740 C.ar   50  TRP50       0.0810
     53  CE3       20.6240  -16.6090   15.7780 C.ar   50  TRP50       0.0012
     54  CZ2       20.0350  -18.2610   17.9590 C.ar   50  TRP50       0.0191
     55  CZ3       19.5010  -16.3780   16.5530 C.ar   50  TRP50       0.0001
     56  CH2       19.1970  -17.1880   17.6440 C.ar   50  TRP50       0.0015
     57  N         25.9030  -13.9590   11.9080 N.3    52  LYS52      -0.1245
     58  CA        25.1250  -12.7460   11.5330 C.3    52  LYS52       0.1561
     59  C         26.1160  -11.6110   11.7010 C.2    52  LYS52       0.2260
     60  O         26.5680  -11.3830   12.7990 O.2    52  LYS52      -0.2867
     61  CB        23.9730  -12.5410   12.4860 C.3    52  LYS52       0.0271
     62  CG        22.8490  -13.5480   12.1640 C.3    52  LYS52       0.0035
     63  CD        22.0170  -13.0240   10.9540 C.3    52  LYS52       0.0206
     64  CE        20.8110  -13.9560   10.6960 C.3    52  LYS52       0.1093
     65  NZ        19.8710  -13.3210    9.7130 N.3    52  LYS52      -0.1314
     66  N          3.9070   -9.7740   25.3090 N.3   192  ASP192     -0.1225
     67  CA         5.3960   -9.8530   25.2390 C.3   192  ASP192      0.1805
     68  C          5.8070   -9.5700   23.7920 C.2   192  ASP192      0.2598
     69  O          5.0240   -9.5880   22.8600 O.2   192  ASP192     -0.2718
     70  CB         5.8950  -11.2890   25.6780 C.3   192  ASP192      0.1424
     71  CG         7.4320  -11.4260   25.8490 C.2   192  ASP192      0.3668
     72  OD1        8.0930  -10.4270   26.0110 O.co2 192  ASP192     -0.2456
     73  OD2        7.8910  -12.5540   25.8140 O.co2 192  ASP192     -0.2456
     74  N          7.0560   -9.2880   23.6200 N.am  193  ALA193     -0.1966
     75  CA         7.5350   -9.0310   22.2670 C.3   193  ALA193      0.1728
     76  C          7.8830  -10.4870   21.8610 C.2   193  ALA193      0.2616
     77  O          7.6950  -11.4150   22.6360 O.2   193  ALA193     -0.2715
     78  CB         8.7820   -8.1780   22.3050 C.3   193  ALA193      0.0334
     79  N          8.3780  -10.6590   20.6800 N.am  194  CYS194     -0.1954
     80  CA         8.7280  -12.0220   20.2410 C.3   194  CYS194      0.1843
     81  C          9.6930  -11.8430   19.1060 C.2   194  CYS194      0.2625
     82  O         10.0640  -10.7180   18.8190 O.2   194  CYS194     -0.2714
     83  CB         7.4470  -12.7880   19.7810 C.3   194  CYS194      0.0997
     84  SG         7.6410  -14.5770   19.5130 S.3   194  CYS194     -0.0797
     85  N         10.0330  -12.9450   18.5200 N.am  195  GLU195     -0.1963
     86  CA        10.9790  -12.9560   17.3780 C.3   195  GLU195      0.1733
     87  C         10.5580  -11.9270   16.3180 C.2   195  GLU195      0.2616
     88  O          9.3950  -11.8510   15.9910 O.2   195  GLU195     -0.2715
     89  CB        10.9860  -14.3190   16.6760 C.3   195  GLU195      0.0429
     90  CG        12.4120  -14.8390   16.5530 C.3   195  GLU195      0.1163
     91  CD        12.4740  -15.8880   15.4250 C.2   195  GLU195      0.3649
     92  OE1       12.6060  -15.4520   14.2920 O.co2 195  GLU195     -0.2457
     93  OE2       12.3790  -17.0620   15.7550 O.co2 195  GLU195     -0.2457
     94  N         11.4570  -11.1720   15.7840 N.am  196  GLY196     -0.1955
     95  CA        11.0780  -10.1590   14.7410 C.3   196  GLY196      0.1869
     96  C         10.8860   -8.8060   15.3580 C.2   196  GLY196      0.2309
     97  O         10.7860   -7.8320   14.6380 O.2   196  GLY196     -0.2863
     98  N         12.8980   -7.7390   17.9960 N.3   198  SER198     -0.1217
     99  CA        14.2300   -7.3070   18.5430 C.3   198  SER198      0.1889
    100  C         14.6300   -5.9500   17.9730 C.2   198  SER198      0.2288
    101  O         14.3200   -5.7250   16.8260 O.2   198  SER198     -0.2866
    102  CB        15.3800   -8.2880   18.1520 C.3   198  SER198      0.2089
    103  OG        15.2020   -9.5460   18.8190 O.3   198  SER198     -0.2183
    104  N         14.1160   -3.5690   22.6570 N.3   218  VAL218     -0.1231
    105  CA        13.7390   -5.0280   22.7870 C.3   218  VAL218      0.1692
    106  C         15.0850   -5.7870   22.5650 C.2   218  VAL218      0.2593
    107  O         15.7350   -5.6690   21.5340 O.2   218  VAL218     -0.2718
    108  CB        12.6280   -5.3490   21.6820 C.3   218  VAL218      0.0266
    109  CG1       12.1330   -6.7750   21.8830 C.3   218  VAL218      0.0020
    110  CG2       11.3600   -4.4380   21.8160 C.3   218  VAL218      0.0020
    111  N         15.4610   -6.5490   23.5610 N.am  219  SER219     -0.1938
    112  CA        16.7240   -7.3020   23.4830 C.3   219  SER219      0.2055
    113  C         16.4850   -8.7820   23.4310 C.2   219  SER219      0.2643
    114  O         16.7780   -9.3480   22.4060 O.2   219  SER219     -0.2714
    115  CB        17.5720   -6.9230   24.7140 C.3   219  SER219      0.2130
    116  OG        18.8510   -7.4890   24.5140 O.3   219  SER219     -0.2179
    117  N         15.9790   -9.3890   24.4660 N.am  220  TRP220     -0.1959
    118  CA        15.7590  -10.8580   24.4150 C.3   220  TRP220      0.1771
    119  C         14.6660  -11.3010   25.3260 C.2   220  TRP220      0.2620
    120  O         13.9940  -10.5090   25.9560 O.2   220  TRP220     -0.2715
    121  CB        17.1230  -11.5950   24.7730 C.3   220  TRP220      0.0590
    122  CG        17.7430  -11.2200   26.1600 C.ar  220  TRP220      0.0006
    123  CD1       18.5680  -10.1560   26.4250 C.ar  220  TRP220      0.0946
    124  CD2       17.5640  -11.8950   27.3480 C.ar  220  TRP220      0.0152
    125  NE1       18.8610  -10.2000   27.7110 N.ar  220  TRP220     -0.2442
    126  CE2       18.2900  -11.2170   28.3270 C.ar  220  TRP220      0.0810
    127  CE3       16.8420  -13.0260   27.6730 C.ar  220  TRP220      0.0012
    128  CZ2       18.2810  -11.6940   29.6410 C.ar  220  TRP220      0.0191
    129  CZ3       16.8340  -13.4940   28.9760 C.ar  220  TRP220      0.0001
    130  CH2       17.5530  -12.8260   29.9600 C.ar  220  TRP220      0.0015
    131  N         14.4790  -12.5780   25.3710 N.am  221  GLY221     -0.1954
    132  CA        13.4420  -13.2160   26.2320 C.3   221  GLY221      0.1869
    133  C         13.6580  -14.6900   25.9400 C.2   221  GLY221      0.2309
    134  O         14.3790  -14.9850   25.0080 O.2   221  GLY221     -0.2863
    135  N         11.7030  -17.6110   24.7160 N.3   223  GLY223     -0.1210
    136  CA        10.3650  -17.9910   24.2080 C.3   223  GLY223      0.1956
    137  C          9.6320  -16.6620   24.0910 C.2   223  GLY223      0.2612
    138  O         10.2550  -15.6060   24.1330 O.2   223  GLY223     -0.2717
    139  N          8.3420  -16.7290   23.9470 N.am  224  CYS224     -0.1970
    140  CA         7.5370  -15.4920   23.8240 C.3   224  CYS224      0.1712
    141  C          6.2800  -15.6690   24.6120 C.2   224  CYS224      0.2296
    142  O          5.4900  -16.5430   24.3050 O.2   224  CYS224     -0.2864
    143  CB         7.1500  -15.2330   22.3850 C.3   224  CYS224      0.0983
    144  SG         8.5260  -15.1520   21.2300 S.3   224  CYS224     -0.0798
    145  N         10.4170  -10.2830   29.3720 N.3   231  GLY231     -0.1210
    146  CA        11.2140   -9.8220   28.2120 C.3   231  GLY231      0.1956
    147  C         12.2350   -8.9030   28.8270 C.2   231  GLY231      0.2612
    148  O         11.9480   -8.2160   29.7900 O.2   231  GLY231     -0.2717
    149  N         13.3870   -8.9140   28.2540 N.am  232  PHE232     -0.1962
    150  CA        14.4870   -8.0740   28.7470 C.3   232  PHE232      0.1771
    151  C         14.7140   -7.0490   27.6820 C.2   232  PHE232      0.2619
    152  O         14.5820   -7.3420   26.4940 O.2   232  PHE232     -0.2715
    153  CB        15.7940   -8.9450   28.9880 C.3   232  PHE232      0.0574
    154  CG        15.5130   -9.7540   30.2850 C.ar  232  PHE232     -0.0200
    155  CD1       14.7570  -10.8950   30.2290 C.ar  232  PHE232     -0.0042
    156  CD2       15.9760   -9.3170   31.5040 C.ar  232  PHE232     -0.0042
    157  CE1       14.4620  -11.5930   31.3760 C.ar  232  PHE232     -0.0003
    158  CE2       15.6760  -10.0200   32.6400 C.ar  232  PHE232     -0.0003
    159  CZ        14.9160  -11.1620   32.5850 C.ar  232  PHE232     -0.0000
    160  N         15.0550   -5.8720   28.1550 N.am  233  TYR233     -0.1974
    161  CA        15.3110   -4.7160   27.2780 C.3   233  TYR233      0.1639
    162  C         16.5780   -4.0200   27.6370 C.2   233  TYR233      0.2290
    163  O         16.9520   -4.0360   28.7860 O.2   233  TYR233     -0.2864
    164  CB        14.1490   -3.7200   27.4070 C.3   233  TYR233      0.0560
    165  CG        12.7750   -4.3370   27.1520 C.ar  233  TYR233     -0.0198
    166  CD1       12.1360   -5.0830   28.1200 C.ar  233  TYR233     -0.0009
    167  CD2       12.1660   -4.1580   25.9300 C.ar  233  TYR233     -0.0009
    168  CE1       10.9120   -5.6350   27.8580 C.ar  233  TYR233      0.0417
    169  CE2       10.9460   -4.7130   25.6890 C.ar  233  TYR233      0.0417
    170  CZ        10.3290   -5.4380   26.6320 C.ar  233  TYR233      0.1957
    171  OH         9.1040   -5.9690   26.3310 O.3   233  TYR233     -0.2866
@<TRIPOS>BOND
     1     7     6    1
     2     1     2    1
     3    65    64    1
     4     5     6    1
     5     5     2    1
     6     6     8    1
     7     2     3    1
     8    64    63    1
     9    63    62    1
    10    58    59    1
    11    58    57    1
    12    58    61    1
    13     3     9   am
    14     3     4    2
    15    59    60    2
    16     9    10    1
    17    46    45    2
    18    62    61    1
    19    12    11    2
    20    28    27    2
    21    45    44    1
    22    11    10    1
    23    10    13    1
    24    27    26    1
    25    13    14    1
    26    44    47    1
    27    44    43    1
    28    47    48    1
    29    92    91   ar
    30    97    96    2
    31    14    30    1
    32    95    96    1
    33    95    94    1
    34    29    26    1
    35    29    30    1
    36    26    25    1
    37    34    33    2
    38    91    93   ar
    39    91    90    1
    40    31    32    1
    41    48    50   ar
    42    48    49   ar
    43    53    50   ar
    44    53    55   ar
    45    94    87   am
    46    33    32    1
    47    88    87    2
    48    50    52   ar
    49    49    51   ar
    50    18    17    2
    51    25    17   am
    52    87    86    1
    53    32    35    1
    54    35    36    1
    55    90    89    1
    56    55    56   ar
    57    89    86    1
    58    17    16    1
    59   101   100    2
    60    51    52   ar
    61    52    54   ar
    62    86    85    1
    63    38    36   ar
    64    38    40   ar
    65    56    54   ar
    66    36    37   ar
    67   100    99    1
    68    98    99    1
    69    16    15    1
    70    16    19    1
    71   102    99    1
    72   102   103    1
    73    22    24   ar
    74    22    20   ar
    75    85    81   am
    76    40    41   ar
    77    24    23   ar
    78    82    81    2
    79    37    39   ar
    80    81    80    1
    81    19    20    1
    82    20    21   ar
    83    84    83    1
    84    84   144    1
    85    23    21   ar
    86    83    80    1
    87    41    39   ar
    88    41    42    1
    89    80    79    1
    90    79    76   am
    91   144   143    1
    92   107   106    2
    93   108   110    1
    94   108   109    1
    95   108   105    1
    96    76    75    1
    97    76    77    2
    98    75    78    1
    99    75    74    1
   100   143   140    1
   101   114   113    2
   102   106   105    1
   103   106   111   am
   104   104   105    1
   105    69    68    2
   106   113   112    1
   107   113   117   am
   108   112   111    1
   109   112   115    1
   110    74    68   am
   111    68    67    1
   112   140   139    1
   113   140   141    1
   114   139   137   am
   115   137   138    2
   116   137   136    1
   117   136   135    1
   118   142   141    2
   119   118   117    1
   120   118   121    1
   121   118   119    1
   122   116   115    1
   123   121   122    1
   124   134   133    2
   125    67    66    1
   126    67    70    1
   127   119   131   am
   128   119   120    2
   129   131   132    1
   130    70    71    1
   131   169   167   ar
   132   169   170   ar
   133    73    71   ar
   134    71    72   ar
   135   167   165   ar
   136   133   132    1
   137   122   123   ar
   138   122   124   ar
   139   171   170    1
   140   123   125   ar
   141   152   151    2
   142   170   168   ar
   143   165   164    1
   144   165   166   ar
   145   161   164    1
   146   161   162    1
   147   161   160    1
   148   124   127   ar
   149   124   126   ar
   150   162   163    2
   151   127   129   ar
   152   151   160   am
   153   151   150    1
   154   125   126   ar
   155   168   166   ar
   156   146   147    1
   157   146   145    1
   158   149   150    1
   159   149   147   am
   160   126   128   ar
   161   150   153    1
   162   147   148    2
   163   129   130   ar
   164   153   154    1
   165   128   130   ar
   166   155   154   ar
   167   155   157   ar
   168   154   156   ar
   169   157   159   ar
   170   156   158   ar
   171   159   158   ar
