@<TRIPOS>MOLECULE
tmp/1gj7B01.pdb
 179 179 0 0 0
SMALL
GASTEIGER

@<TRIPOS>ATOM
      1  N         20.2970    9.1110   19.9380 N.3    30  VAL30      -0.1231
      2  CA        18.8780    9.3840   19.6300 C.3    30  VAL30       0.1692
      3  C         18.1040    8.0310   19.5640 C.2    30  VAL30       0.2592
      4  O         17.2560    7.7890   20.4020 O.2    30  VAL30      -0.2718
      5  CB        18.7760   10.1540   18.2440 C.3    30  VAL30       0.0266
      6  CG1       17.2980   10.3880   17.8070 C.3    30  VAL30       0.0020
      7  CG2       19.4630   11.5210   18.3440 C.3    30  VAL30       0.0020
      8  N         18.4050    7.2010   18.6040 N.am   31  CYS31      -0.1970
      9  CA        17.6990    5.9020   18.4630 C.3    31  CYS31       0.1712
     10  C         18.5510    4.8850   17.7510 C.2    31  CYS31       0.2296
     11  O         19.6220    5.1870   17.2610 O.2    31  CYS31      -0.2864
     12  CB        16.4090    6.0910   17.6350 C.3    31  CYS31       0.0983
     13  SG        14.9890    6.9540   18.3440 S.3    31  CYS31      -0.0798
     14  N          9.1690    8.7960   14.7620 N.3    46  HIS46      -0.1226
     15  CA         9.1360    9.5700   16.0220 C.3    46  HIS46       0.1752
     16  C         10.5160    9.9120   16.5760 C.2    46  HIS46       0.2596
     17  O         10.5980   10.7370   17.4570 O.2    46  HIS46      -0.2718
     18  CB         8.2720    8.8060   17.1070 C.3    46  HIS46       0.0759
     19  CG         8.9230    7.8080   18.1030 C.ar   46  HIS46       0.0818
     20  ND1        8.9670    6.5090   18.0310 N.ar   46  HIS46      -0.2268
     21  CD2        9.5780    8.1510   19.2690 C.ar   46  HIS46       0.1154
     22  CE1        9.5750    6.0610   19.0950 C.ar   46  HIS46       0.1986
     23  NE2        9.9660    7.0490   19.8530 N.ar   46  HIS46      -0.2212
     24  N         11.5330    9.2980   16.0560 N.am   47  CYS47      -0.1970
     25  CA        12.9010    9.6040   16.5540 C.3    47  CYS47       0.1712
     26  C         13.3770   10.9330   15.9450 C.2    47  CYS47       0.2296
     27  O         14.1920   11.6290   16.5150 O.2    47  CYS47      -0.2864
     28  CB        13.8720    8.5170   16.1110 C.3    47  CYS47       0.0983
     29  SG        13.6610    6.8800   16.8320 S.3    47  CYS47      -0.0798
     30  N         10.6080   15.6030   15.8670 N.3    50  ASP50      -0.1239
     31  CA        10.8110   16.9240   16.5260 C.3    50  ASP50       0.1674
     32  C         12.0420   17.6950   16.0850 C.2    50  ASP50       0.2266
     33  O         12.2240   18.8080   16.5210 O.2    50  ASP50      -0.2867
     34  CB        10.8470   16.6960   18.0520 C.3    50  ASP50       0.1410
     35  CG         9.4570   16.2540   18.5990 C.2    50  ASP50       0.3668
     36  OD1        9.4870   15.6460   19.6520 O.co2  50  ASP50      -0.2456
     37  OD2        8.4440   16.5360   17.9750 O.co2  50  ASP50      -0.2456
     38  N         21.8510    6.2220   29.4980 N.3   150  TYR150     -0.1241
     39  CA        21.8150    4.9880   28.6670 C.3   150  TYR150      0.1605
     40  C         23.0880    4.1790   29.0110 C.2   150  TYR150      0.2264
     41  O         24.1180    4.7590   29.3290 O.2   150  TYR150     -0.2867
     42  CB        21.8530    5.3440   27.1860 C.3   150  TYR150      0.0534
     43  CG        20.5590    5.9630   26.6630 C.ar  150  TYR150     -0.0201
     44  CD1       19.3290    5.6850   27.2320 C.ar  150  TYR150     -0.0009
     45  CD2       20.6240    6.8020   25.5750 C.ar  150  TYR150     -0.0009
     46  CE1       18.1780    6.2410   26.7170 C.ar  150  TYR150      0.0417
     47  CE2       19.4690    7.3620   25.0600 C.ar  150  TYR150      0.0417
     48  CZ        18.2490    7.0690   25.6410 C.ar  150  TYR150      0.1957
     49  OH        17.0530    7.5730   25.2100 O.3   150  TYR150     -0.2866
     50  N         12.2830   -6.3740   28.5550 N.3   192  ASP192     -0.1225
     51  CA        11.5350   -5.5870   27.5260 C.3   192  ASP192      0.1805
     52  C         12.4640   -4.5100   26.9280 C.2   192  ASP192      0.2598
     53  O         13.5960   -4.3550   27.3700 O.2   192  ASP192     -0.2718
     54  CB        10.3270   -4.9200   28.2460 C.3   192  ASP192      0.1424
     55  CG         9.2660   -4.3160   27.3110 C.2   192  ASP192      0.3668
     56  OD1        9.2770   -4.6180   26.1400 O.co2 192  ASP192     -0.2456
     57  OD2        8.4650   -3.5690   27.8270 O.co2 192  ASP192     -0.2456
     58  N         11.9320   -3.8110   25.9570 N.am  193  SER193     -0.1938
     59  CA        12.6530   -2.7120   25.2740 C.3   193  SER193      0.2055
     60  C         12.1870   -1.4910   26.1130 C.2   193  SER193      0.2643
     61  O         11.2240   -1.6150   26.8640 O.2   193  SER193     -0.2714
     62  CB        12.1820   -2.5210   23.7750 C.3   193  SER193      0.2130
     63  OG        10.7900   -2.8070   23.6990 O.3   193  SER193     -0.2179
     64  N         12.8720   -0.3850   25.9660 N.am  194  CYS194     -0.1953
     65  CA        12.5050    0.8320   26.7130 C.3   194  CYS194      0.1843
     66  C         13.0070    2.0280   25.8980 C.2   194  CYS194      0.2625
     67  O         13.5330    1.8830   24.8100 O.2   194  CYS194     -0.2714
     68  CB        13.1390    0.7930   28.1430 C.3   194  CYS194      0.0997
     69  SG        12.4080    1.8850   29.3910 S.3   194  CYS194     -0.0797
     70  N         12.8320    3.1730   26.4550 N.am  195  GLN195     -0.1963
     71  CA        13.2440    4.4460   25.8270 C.3   195  GLN195      0.1733
     72  C         14.7010    4.3280   25.4030 C.2   195  GLN195      0.2616
     73  O         15.5320    3.9180   26.1950 O.2   195  GLN195     -0.2715
     74  CB        12.9800    5.5310   26.9090 C.3   195  GLN195      0.0408
     75  CG        11.4730    5.4890   27.3280 C.3   195  GLN195      0.0908
     76  CD        11.3050    6.0920   28.7070 C.2   195  GLN195      0.2608
     77  OE1       11.6150    7.2090   29.0020 O.2   195  GLN195     -0.2717
     78  NE2       10.8490    5.3500   29.6460 N.am  195  GLN195     -0.0878
     79  N         14.9950    4.6770   24.1820 N.am  196  GLY196     -0.1955
     80  CA        16.4210    4.5810   23.7360 C.3   196  GLY196      0.1869
     81  C         16.5860    3.3980   22.8280 C.2   196  GLY196      0.2309
     82  O         17.4850    3.3700   22.0180 O.2   196  GLY196     -0.2863
     83  N         14.1690    2.5720   20.9960 N.3   198  SER198     -0.1217
     84  CA        13.2490    3.1330   19.9760 C.3   198  SER198      0.1889
     85  C         13.9170    3.1100   18.5770 C.2   198  SER198      0.2288
     86  O         15.0870    3.4410   18.5070 O.2   198  SER198     -0.2866
     87  CB        12.9480    4.5730   20.3830 C.3   198  SER198      0.2089
     88  OG        13.1870    4.6890   21.7980 O.3   198  SER198     -0.2183
     89  N         11.1740   -1.0590   17.0760 N.3   216  VAL216     -0.1231
     90  CA        10.7790   -0.6520   18.4460 C.3   216  VAL216      0.1692
     91  C         10.0210    0.6900   18.3050 C.2   216  VAL216      0.2593
     92  O         10.6290    1.6620   17.8800 O.2   216  VAL216     -0.2718
     93  CB        12.0470   -0.4530   19.3470 C.3   216  VAL216      0.0266
     94  CG1       11.6210   -0.1350   20.7560 C.3   216  VAL216      0.0020
     95  CG2       12.8720   -1.7210   19.4370 C.3   216  VAL216      0.0020
     96  N          8.7680    0.7200   18.6570 N.am  217  SER217     -0.1938
     97  CA         7.9520    1.9660   18.5490 C.3   217  SER217      0.2055
     98  C          7.3730    2.5490   19.8920 C.2   217  SER217      0.2643
     99  O          7.7870    3.6350   20.2880 O.2   217  SER217     -0.2714
    100  CB         6.8170    1.6280   17.5200 C.3   217  SER217      0.2130
    101  OG         5.9690    2.7720   17.3850 O.3   217  SER217     -0.2179
    102  N          6.4580    1.8780   20.5540 N.am  218  TRP218     -0.1959
    103  CA         5.9150    2.4640   21.8200 C.3   218  TRP218      0.1771
    104  C          5.4560    1.4500   22.8180 C.2   218  TRP218      0.2620
    105  O          5.4050    0.2630   22.5690 O.2   218  TRP218     -0.2715
    106  CB         4.7400    3.3880   21.4880 C.3   218  TRP218      0.0590
    107  CG         3.5420    2.7050   20.7500 C.ar  218  TRP218      0.0006
    108  CD1        3.4300    2.4700   19.4010 C.ar  218  TRP218      0.0946
    109  CD2        2.3590    2.2720   21.3280 C.ar  218  TRP218      0.0152
    110  NE1        2.2660    1.8950   19.1920 N.ar  218  TRP218     -0.2442
    111  CE2        1.5650    1.7730   20.2940 C.ar  218  TRP218      0.0810
    112  CE3        1.8740    2.2290   22.6260 C.ar  218  TRP218      0.0012
    113  CZ2        0.3040    1.2320   20.5680 C.ar  218  TRP218      0.0191
    114  CZ3        0.6070    1.7080   22.8930 C.ar  218  TRP218      0.0001
    115  CH2       -0.1730    1.1980   21.8710 C.ar  218  TRP218      0.0015
    116  N          5.1180    1.9230   23.9680 N.am  219  GLY219     -0.1940
    117  CA         4.6390    0.9830   25.0170 C.3   219  GLY219      0.2014
    118  C          4.3380    1.7970   26.2630 C.2   219  GLY219      0.2639
    119  O          4.8160    2.9110   26.3580 O.2   219  GLY219     -0.2714
    120  N          3.5820    1.2540   27.1690 N.am  220  ARG220     -0.1963
    121  CA         3.2630    2.0070   28.4160 C.3   220  ARG220      0.1729
    122  C          4.3450    1.4970   29.3770 C.2   220  ARG220      0.2617
    123  O          4.4090    0.3160   29.6720 O.2   220  ARG220     -0.2715
    124  CB         1.8650    1.6400   28.9840 C.3   220  ARG220      0.0348
    125  CG         1.6840    2.4770   30.2820 C.3   220  ARG220      0.0492
    126  CD         0.3770    2.1760   31.0170 C.3   220  ARG220      0.2205
    127  NE         0.4170    2.9820   32.2850 N.pl3 220  ARG220     -0.0865
    128  CZ         0.4920    2.4230   33.4700 C.cat 220  ARG220      0.5346
    129  NH1        0.7660    1.1510   33.6020 N.pl3 220  ARG220      0.1354
    130  NH2        0.2820    3.1790   34.5110 N.pl3 220  ARG220      0.1354
    131  N          5.1540    2.4070   29.8360 N.am  221  GLY221     -0.1940
    132  CA         6.2410    2.0130   30.7590 C.3   221  GLY221      0.2014
    133  C          7.1650    1.0750   29.9690 C.2   221  GLY221      0.2639
    134  O          7.1700    1.0410   28.7430 O.2   221  GLY221     -0.2714
    135  N          7.9220    0.3570   30.7280 N.am  222  CYS222     -0.1967
    136  CA         8.8850   -0.6260   30.2110 C.3   222  CYS222      0.1712
    137  C          8.7480   -1.7720   31.1940 C.2   222  CYS222      0.2296
    138  O          8.7540   -1.5600   32.3880 O.2   222  CYS222     -0.2864
    139  CB        10.2690   -0.0150   30.2480 C.3   222  CYS222      0.0983
    140  SG        10.4430    1.4820   29.2550 S.3   222  CYS222     -0.0798
    141  N          1.4000   -4.8080   29.5620 N.3   227  LYS227     -0.1231
    142  CA         1.7430   -3.6050   28.7370 C.3   227  LYS227      0.1678
    143  C          2.9230   -4.0840   27.8670 C.2   227  LYS227      0.2434
    144  O          4.0880   -3.8240   28.1380 O.2   227  LYS227     -0.2733
    145  CB         2.1630   -2.3950   29.6300 C.3   227  LYS227      0.0284
    146  CG         0.9900   -2.0090   30.5880 C.3   227  LYS227      0.0035
    147  CD        -0.2760   -1.5300   29.8010 C.3   227  LYS227      0.0206
    148  CE        -1.5040   -1.5700   30.7120 C.3   227  LYS227      0.1093
    149  NZ        -2.6600   -0.9960   30.0070 N.3   227  LYS227     -0.1314
    150  N          2.6120   -4.8160   26.8120 N.am  228  PRO228     -0.2718
    151  CA         3.6310   -5.2970   25.8420 C.3   228  PRO228      0.1535
    152  C          4.3660   -4.1320   25.1400 C.2   228  PRO228      0.2599
    153  O          3.9960   -2.9850   25.2660 O.2   228  PRO228     -0.2715
    154  CB         2.8520   -6.1580   24.8460 C.3   228  PRO228      0.0310
    155  CG         1.5430   -6.5240   25.5820 C.3   228  PRO228      0.0237
    156  CD         1.2310   -5.2630   26.4190 C.3   228  PRO228      0.0939
    157  N          5.3630   -4.4500   24.3880 N.am  229  GLY229     -0.1941
    158  CA         6.0770   -3.3690   23.6700 C.3   229  GLY229      0.2014
    159  C          5.3270   -3.4880   22.3460 C.2   229  GLY229      0.2639
    160  O          4.9480   -4.6020   21.9900 O.2   229  GLY229     -0.2714
    161  N          5.1270   -2.3910   21.6620 N.am  230  VAL230     -0.1963
    162  CA         4.4030   -2.4210   20.3590 C.3   230  VAL230      0.1727
    163  C          5.4610   -2.0170   19.3250 C.2   230  VAL230      0.2616
    164  O          6.1970   -1.0580   19.5050 O.2   230  VAL230     -0.2715
    165  CB         3.2380   -1.4170   20.4330 C.3   230  VAL230      0.0290
    166  CG1        2.3130   -1.5610   19.1890 C.3   230  VAL230      0.0023
    167  CG2        2.4240   -1.7210   21.6940 C.3   230  VAL230      0.0023
    168  N          5.4890   -2.7580   18.2560 N.am  231  TYR231     -0.1974
    169  CA         6.4430   -2.5580   17.1480 C.3   231  TYR231      0.1639
    170  C          5.7370   -2.3090   15.8250 C.2   231  TYR231      0.2290
    171  O          4.6280   -2.7810   15.6580 O.2   231  TYR231     -0.2864
    172  CB         7.2840   -3.8230   17.0140 C.3   231  TYR231      0.0560
    173  CG         7.9780   -4.1620   18.3270 C.ar  231  TYR231     -0.0198
    174  CD1        7.2660   -4.6580   19.4280 C.ar  231  TYR231     -0.0009
    175  CD2        9.3410   -3.9420   18.4290 C.ar  231  TYR231     -0.0009
    176  CE1        7.9290   -4.9150   20.6180 C.ar  231  TYR231      0.0417
    177  CE2        9.9910   -4.1960   19.6050 C.ar  231  TYR231      0.0417
    178  CZ         9.2960   -4.6720   20.6980 C.ar  231  TYR231      0.1957
    179  OH        10.0020   -4.8680   21.8660 O.3   231  TYR231     -0.2866
@<TRIPOS>BOND
     1    14    15    1
     2   171   170    2
     3   170   169    1
     4    30    31    1
     5    26    27    2
     6    26    25    1
     7    15    16    1
     8    15    18    1
     9    24    25    1
    10    24    16   am
    11    32    33    2
    12    32    31    1
    13    28    25    1
    14    28    29    1
    15    31    34    1
    16    16    17    2
    17    29    13    1
    18   172   169    1
    19   172   173    1
    20    89    90    1
    21    18    19    1
    22   169   168    1
    23    11    10    2
    24   101   100    1
    25   100    97    1
    26    12    13    1
    27    12     9    1
    28    10     9    1
    29     6     5    1
    30    92    91    2
    31    37    35   ar
    32    20    19   ar
    33    20    22   ar
    34    34    35    1
    35    19    21   ar
    36     5     7    1
    37     5     2    1
    38   168   163   am
    39    91    90    1
    40    91    96   am
    41   173   175   ar
    42   173   174   ar
    43   175   177   ar
    44    90    93    1
    45     9     8    1
    46    86    85    2
    47    97    96    1
    48    97    98    1
    49    85    84    1
    50    35    36   ar
    51     8     3   am
    52    22    23   ar
    53   166   165    1
    54   110   108   ar
    55   110   111   ar
    56    21    23   ar
    57   163   164    2
    58   163   162    1
    59    93    95    1
    60    93    94    1
    61   108   107   ar
    62   174   176   ar
    63     3     2    1
    64     3     4    2
    65   177   178   ar
    66     2     1    1
    67    98    99    2
    68    98   102   am
    69    84    87    1
    70    84    83    1
    71   111   113   ar
    72   111   109   ar
    73   162   165    1
    74   162   161    1
    75    87    88    1
    76   165   167    1
    77   102   103    1
    78   113   115   ar
    79   176   178   ar
    80   178   179    1
    81   107   109   ar
    82   107   106    1
    83   109   112   ar
    84   106   103    1
    85   161   159   am
    86   103   104    1
    87   115   114   ar
    88   160   159    2
    89    82    81    2
    90   159   158    1
    91   105   104    2
    92   112   114   ar
    93   104   116   am
    94    81    80    1
    95   158   157    1
    96    63    62    1
    97    80    79    1
    98    62    59    1
    99   116   117    1
   100    79    72   am
   101   157   152   am
   102    67    66    2
   103   154   155    1
   104   154   151    1
   105   117   118    1
   106    47    45   ar
   107    47    48   ar
   108   152   153    2
   109   152   151    1
   110    49    48    1
   111    59    58    1
   112    59    60    1
   113    72    71    1
   114    72    73    2
   115    45    43   ar
   116   155   156    1
   117    48    46   ar
   118    71    70    1
   119    71    74    1
   120   151   150    1
   121    66    70   am
   122    66    65    1
   123    58    52   am
   124    64    60   am
   125    64    65    1
   126    60    61    2
   127    56    55   ar
   128   118   119    2
   129   118   120   am
   130   156   150    1
   131    43    42    1
   132    43    44   ar
   133    65    68    1
   134    46    44   ar
   135   150   143   am
   136    74    75    1
   137    52    53    2
   138    52    51    1
   139   120   121    1
   140    42    39    1
   141    55    57   ar
   142    55    54    1
   143    75    76    1
   144    51    54    1
   145    51    50    1
   146   143   144    2
   147   143   142    1
   148    68    69    1
   149   121   124    1
   150   121   122    1
   151    39    40    1
   152    39    38    1
   153    76    77    2
   154    76    78   am
   155   142   141    1
   156   142   145    1
   157   134   133    2
   158   124   125    1
   159    40    41    2
   160   140    69    1
   161   140   139    1
   162   122   123    2
   163   122   131   am
   164   145   146    1
   165   147   146    1
   166   147   148    1
   167   131   132    1
   168   133   135   am
   169   133   132    1
   170   149   148    1
   171   136   139    1
   172   136   135    1
   173   136   137    1
   174   125   126    1
   175   126   127    1
   176   137   138    2
   177   127   128    2
   178   128   129    1
   179   128   130    1
