@<TRIPOS>MOLECULE
tmp/1gj8B02.pdb
 138 135 0 0 0
SMALL
GASTEIGER

@<TRIPOS>ATOM
      1  N         19.7230    9.3510   19.6320 N.3    30  VAL30      -0.1231
      2  CA        18.3100    9.5870   19.2440 C.3    30  VAL30       0.1692
      3  C         17.5460    8.2490   19.3010 C.2    30  VAL30       0.2592
      4  O         16.7310    8.0740   20.1850 O.2    30  VAL30      -0.2718
      5  CB        18.3430   10.2090   17.7950 C.3    30  VAL30       0.0266
      6  CG1       16.9130   10.4980   17.2510 C.3    30  VAL30       0.0020
      7  CG2       19.1440   11.5320   17.8370 C.3    30  VAL30       0.0020
      8  N         17.8500    7.3750   18.3780 N.am   31  CYS31      -0.1970
      9  CA        17.1910    6.0460   18.2830 C.3    31  CYS31       0.1712
     10  C         18.1250    5.0130   17.6170 C.2    31  CYS31       0.2296
     11  O         19.2220    5.3150   17.1660 O.2    31  CYS31      -0.2864
     12  CB        15.8930    6.2140   17.4230 C.3    31  CYS31       0.0983
     13  SG        14.4650    7.0780   18.1070 S.3    31  CYS31      -0.0798
     14  N          8.7670    8.6640   14.1910 N.3    46  HIS46      -0.1226
     15  CA         8.6680    9.5050   15.3920 C.3    46  HIS46       0.1752
     16  C         10.0360    9.8930   15.9560 C.2    46  HIS46       0.2596
     17  O         10.0580   10.7780   16.7840 O.2    46  HIS46      -0.2718
     18  CB         7.7940    8.7730   16.4770 C.3    46  HIS46       0.0759
     19  CG         8.5340    7.9060   17.5130 C.ar   46  HIS46       0.0818
     20  ND1        8.5560    6.5960   17.6490 N.ar   46  HIS46      -0.2268
     21  CD2        9.3280    8.4100   18.5460 C.ar   46  HIS46       0.1154
     22  CE1        9.3030    6.2960   18.6690 C.ar   46  HIS46       0.1986
     23  NE2        9.7620    7.3830   19.2180 N.ar   46  HIS46      -0.2212
     24  N         11.0950    9.2580   15.5120 N.am   47  CYS47      -0.1970
     25  CA        12.4660    9.6000   16.0320 C.3    47  CYS47       0.1712
     26  C         12.9850   10.9130   15.4020 C.2    47  CYS47       0.2296
     27  O         13.8210   11.6230   15.9400 O.2    47  CYS47      -0.2864
     28  CB        13.4690    8.4610   15.6770 C.3    47  CYS47       0.0983
     29  SG        13.2230    6.8980   16.5220 S.3    47  CYS47      -0.0798
     30  N         10.1830   15.5660   14.9500 N.3    50  ASP50      -0.1239
     31  CA        10.4050   16.9070   15.5950 C.3    50  ASP50       0.1674
     32  C         11.5780   17.7050   15.0530 C.2    50  ASP50       0.2266
     33  O         11.5430   18.9170   15.0410 O.2    50  ASP50      -0.2867
     34  CB        10.6390   16.7450   17.1200 C.3    50  ASP50       0.1410
     35  CG         9.4090   16.1110   17.7950 C.2    50  ASP50       0.3668
     36  OD1        9.6390   15.2350   18.6150 O.co2  50  ASP50      -0.2456
     37  OD2        8.3120   16.5340   17.4610 O.co2  50  ASP50      -0.2456
     38  N          1.5450    5.4710   17.7400 N.3    94  HIS94      -0.1241
     39  CA         2.1960    6.1550   16.6000 C.3    94  HIS94       0.1621
     40  C          1.6910    5.2390   15.4840 C.2    94  HIS94       0.2264
     41  O          1.7730    4.0300   15.6330 O.2    94  HIS94      -0.2867
     42  CB         3.7280    6.0570   16.6220 C.3    94  HIS94       0.0745
     43  CG         4.3830    6.8510   17.7640 C.ar   94  HIS94       0.0817
     44  ND1        4.4440    8.1600   17.8890 N.ar   94  HIS94      -0.2268
     45  CD2        5.0330    6.3210   18.8780 C.ar   94  HIS94       0.1154
     46  CE1        5.0800    8.4380   18.9920 C.ar   94  HIS94       0.1986
     47  NE2        5.4400    7.3380   19.5950 N.ar   94  HIS94      -0.2212
     48  N         11.6000   -6.1370   28.5080 N.3   192  ASP192     -0.1225
     49  CA        10.7950   -5.3730   27.5010 C.3   192  ASP192      0.1805
     50  C         11.6960   -4.2930   26.9040 C.2   192  ASP192      0.2598
     51  O         12.8370   -4.1260   27.3300 O.2   192  ASP192     -0.2718
     52  CB         9.6120   -4.6820   28.2340 C.3   192  ASP192      0.1424
     53  CG         8.4570   -4.1810   27.3630 C.2   192  ASP192      0.3668
     54  OD1        8.4890   -4.3550   26.1600 O.co2 192  ASP192     -0.2456
     55  OD2        7.5700   -3.6360   27.9910 O.co2 192  ASP192     -0.2456
     56  N         11.1540   -3.5880   25.9380 N.am  193  SER193     -0.1938
     57  CA        11.8960   -2.4810   25.2770 C.3   193  SER193      0.2055
     58  C         11.4340   -1.2900   26.1710 C.2   193  SER193      0.2643
     59  O         10.5040   -1.4030   26.9550 O.2   193  SER193     -0.2714
     60  CB        11.4330   -2.3110   23.7720 C.3   193  SER193      0.2130
     61  OG        10.0220   -2.5060   23.7400 O.3   193  SER193     -0.2179
     62  N         12.1060   -0.1920   26.0360 N.am  194  CYS194     -0.1953
     63  CA        11.7700    1.0090   26.8350 C.3   194  CYS194      0.1843
     64  C         12.2900    2.2510   26.0680 C.2   194  CYS194      0.2625
     65  O         12.8310    2.1530   24.9760 O.2   194  CYS194     -0.2714
     66  CB        12.4260    0.8600   28.2420 C.3   194  CYS194      0.0997
     67  SG        11.7490    1.9010   29.5480 S.3   194  CYS194     -0.0797
     68  N         12.1100    3.3780   26.6840 N.am  195  GLN195     -0.1963
     69  CA        12.5390    4.6680   26.0960 C.3   195  GLN195      0.1733
     70  C         13.9980    4.5710   25.7210 C.2   195  GLN195      0.2616
     71  O         14.8100    4.1060   26.5000 O.2   195  GLN195     -0.2715
     72  CB        12.2810    5.7570   27.1380 C.3   195  GLN195      0.0408
     73  CG        12.3420    7.1340   26.4690 C.3   195  GLN195      0.0908
     74  CD        11.8640    8.1270   27.4940 C.2   195  GLN195      0.2608
     75  OE1       10.9230    7.8690   28.2210 O.2   195  GLN195     -0.2717
     76  NE2       12.4640    9.2590   27.5950 N.am  195  GLN195     -0.0878
     77  N         14.2990    5.0090   24.5410 N.am  196  GLY196     -0.1955
     78  CA        15.6930    4.9570   24.0610 C.3   196  GLY196      0.1869
     79  C         15.7940    3.7720   23.0910 C.2   196  GLY196      0.2309
     80  O         16.6870    3.6930   22.2830 O.2   196  GLY196     -0.2863
     81  N         13.4020    2.9480   20.8320 N.3   198  SER198     -0.1217
     82  CA        12.6380    3.2700   19.5740 C.3   198  SER198      0.1889
     83  C         13.4210    3.1110   18.2720 C.2   198  SER198      0.2288
     84  O         14.5860    3.4540   18.2480 O.2   198  SER198     -0.2866
     85  CB        12.1510    4.7300   19.5520 C.3   198  SER198      0.2089
     86  OG        11.2450    4.9450   20.6340 O.3   198  SER198     -0.2183
     87  N         10.8080   -1.1640   16.9440 N.3   216  VAL216     -0.1231
     88  CA        10.3700   -0.7240   18.3030 C.3   216  VAL216      0.1692
     89  C          9.6250    0.6280   18.1250 C.2   216  VAL216      0.2593
     90  O         10.2350    1.5730   17.6490 O.2   216  VAL216     -0.2718
     91  CB        11.6350   -0.5570   19.2050 C.3   216  VAL216      0.0266
     92  CG1       11.2110   -0.2300   20.6410 C.3   216  VAL216      0.0020
     93  CG2       12.4820   -1.8490   19.2640 C.3   216  VAL216      0.0020
     94  N          8.3700    0.6730   18.5090 N.am  217  SER217     -0.1938
     95  CA         7.5630    1.9180   18.3720 C.3   217  SER217      0.2055
     96  C          7.0550    2.5570   19.6900 C.2   217  SER217      0.2643
     97  O          7.5040    3.6450   20.0070 O.2   217  SER217     -0.2714
     98  CB         6.3730    1.5540   17.4150 C.3   217  SER217      0.2130
     99  OG         5.7020    2.7590   17.0430 O.3   217  SER217     -0.2179
    100  N          6.1680    1.9330   20.4300 N.am  218  TRP218     -0.1959
    101  CA         5.6740    2.5670   21.6850 C.3   218  TRP218      0.1771
    102  C          5.2680    1.5490   22.7370 C.2   218  TRP218      0.2620
    103  O          5.4600    0.3700   22.5630 O.2   218  TRP218     -0.2715
    104  CB         4.4430    3.4860   21.3540 C.3   218  TRP218      0.0590
    105  CG         3.2830    2.7860   20.6240 C.ar  218  TRP218      0.0006
    106  CD1        3.2430    2.5200   19.2880 C.ar  218  TRP218      0.0946
    107  CD2        2.1310    2.3500   21.1920 C.ar  218  TRP218      0.0152
    108  NE1        2.0650    1.9430   19.1360 N.ar  218  TRP218     -0.2442
    109  CE2        1.3150    1.7980   20.2100 C.ar  218  TRP218      0.0810
    110  CE3        1.6690    2.3700   22.5040 C.ar  218  TRP218      0.0012
    111  CZ2        0.0630    1.2700   20.5290 C.ar  218  TRP218      0.0191
    112  CZ3        0.4180    1.8430   22.8200 C.ar  218  TRP218      0.0001
    113  CH2       -0.3780    1.2940   21.8300 C.ar  218  TRP218      0.0015
    114  N          4.7260    2.0010   23.8230 N.am  219  GLY219     -0.1954
    115  CA         4.2940    1.0650   24.8880 C.3   219  GLY219      0.1869
    116  C          3.9480    1.8890   26.0960 C.2   219  GLY219      0.2309
    117  O          4.4450    2.9940   26.1860 O.2   219  GLY219     -0.2863
    118  N          4.5350    2.4490   29.7390 N.3   221  GLY221     -0.1210
    119  CA         5.5140    2.0420   30.7910 C.3   221  GLY221      0.1956
    120  C          6.5120    1.0930   30.1330 C.2   221  GLY221      0.2612
    121  O          6.5830    1.0130   28.9150 O.2   221  GLY221     -0.2717
    122  N          7.2720    0.3970   30.9260 N.am  222  CYS222     -0.1970
    123  CA         8.2610   -0.5610   30.3880 C.3   222  CYS222      0.1712
    124  C          8.1650   -1.7610   31.3160 C.2   222  CYS222      0.2296
    125  O          8.2150   -1.6100   32.5210 O.2   222  CYS222     -0.2864
    126  CB         9.6190    0.0630   30.4370 C.3   222  CYS222      0.0983
    127  SG         9.7650    1.5580   29.4440 S.3   222  CYS222     -0.0798
    128  N          4.9260   -4.4130   24.4330 N.3   229  GLY229     -0.1210
    129  CA         5.6420   -3.3210   23.7420 C.3   229  GLY229      0.1956
    130  C          4.9620   -3.4160   22.3910 C.2   229  GLY229      0.2611
    131  O          4.5340   -4.5000   22.0320 O.2   229  GLY229     -0.2717
    132  N          4.8740   -2.3310   21.6740 N.am  230  VAL230     -0.1979
    133  CA         4.2100   -2.3680   20.3440 C.3   230  VAL230      0.1595
    134  C          5.2680   -2.0180   19.2860 C.2   230  VAL230      0.2287
    135  O          6.0820   -1.1190   19.4730 O.2   230  VAL230     -0.2864
    136  CB         3.0290   -1.3730   20.4230 C.3   230  VAL230      0.0276
    137  CG1        2.1410   -1.5590   19.1990 C.3   230  VAL230      0.0022
    138  CG2        2.1780   -1.6960   21.6690 C.3   230  VAL230      0.0022
@<TRIPOS>BOND
     1    14    15    1
     2    30    31    1
     3    33    32    2
     4    32    31    1
     5    15    16    1
     6    15    18    1
     7    26    27    2
     8    26    25    1
     9    40    41    2
    10    40    39    1
    11    24    16   am
    12    24    25    1
    13    31    34    1
    14    28    25    1
    15    28    29    1
    16    16    17    2
    17    18    19    1
    18    29    13    1
    19    39    42    1
    20    39    38    1
    21    42    43    1
    22    87    88    1
    23    99    98    1
    24    34    35    1
    25    11    10    2
    26     6     5    1
    27    98    95    1
    28    12    13    1
    29    12     9    1
    30    37    35   ar
    31    19    20   ar
    32    19    21   ar
    33    10     9    1
    34    20    22   ar
    35    90    89    2
    36    43    44   ar
    37    43    45   ar
    38     5     7    1
    39     5     2    1
    40    35    36   ar
    41    44    46   ar
    42    89    88    1
    43    89    94   am
    44    84    83    2
    45    83    82    1
    46     9     8    1
    47    88    91    1
    48    95    94    1
    49    95    96    1
    50     8     3   am
    51    21    23   ar
    52    22    23   ar
    53    45    47   ar
    54    46    47   ar
    55   108   106   ar
    56   108   109   ar
    57   137   136    1
    58    91    93    1
    59    91    92    1
    60     2     3    1
    61     2     1    1
    62   134   135    2
    63   134   133    1
    64   106   105   ar
    65     3     4    2
    66    85    82    1
    67    85    86    1
    68    82    81    1
    69    96    97    2
    70    96   100   am
    71   109   111   ar
    72   109   107   ar
    73   133   136    1
    74   133   132    1
    75   136   138    1
    76   100   101    1
    77   111   113   ar
    78   105   107   ar
    79   105   104    1
    80   107   110   ar
    81   104   101    1
    82   132   130   am
    83   101   102    1
    84   113   112   ar
    85   131   130    2
    86    80    79    2
    87   130   129    1
    88   110   112   ar
    89   103   102    2
    90   102   114   am
    91    79    78    1
    92    61    60    1
    93   129   128    1
    94    60    57    1
    95   114   115    1
    96    78    77    1
    97    77    70   am
    98   115   116    1
    99    65    64    2
   100    57    56    1
   101    57    58    1
   102    70    69    1
   103    70    71    2
   104    56    50   am
   105    62    58   am
   106    62    63    1
   107    64    68   am
   108    64    63    1
   109   116   117    2
   110    69    68    1
   111    69    72    1
   112    54    53   ar
   113    58    59    2
   114    73    72    1
   115    73    74    1
   116    63    66    1
   117    50    51    2
   118    50    49    1
   119    53    55   ar
   120    53    52    1
   121    74    76   am
   122    74    75    2
   123    49    52    1
   124    49    48    1
   125    66    67    1
   126   121   120    2
   127   127    67    1
   128   127   126    1
   129   118   119    1
   130   120   119    1
   131   120   122   am
   132   123   126    1
   133   123   122    1
   134   123   124    1
   135   124   125    2
