@<TRIPOS>MOLECULE
tmp/1gj9B01.pdb
 162 163 0 0 0
SMALL
GASTEIGER

@<TRIPOS>ATOM
      1  N         18.1820    7.2700   18.6040 N.3    31  CYS31      -0.1235
      2  CA        17.4910    5.9630   18.4740 C.3    31  CYS31       0.1677
      3  C         18.3420    4.9790   17.7140 C.2    31  CYS31       0.2270
      4  O         19.3740    5.3510   17.1970 O.2    31  CYS31      -0.2867
      5  CB        16.1830    6.1340   17.6900 C.3    31  CYS31       0.0956
      6  SG        14.8080    6.9370   18.5020 S.3    31  CYS31      -0.0801
      7  N          8.8860    8.6900   14.7790 N.3    46  HIS46      -0.1226
      8  CA         8.8000    9.4680   16.0570 C.3    46  HIS46       0.1752
      9  C         10.1980    9.8650   16.5910 C.2    46  HIS46       0.2596
     10  O         10.2840   10.7750   17.3900 O.2    46  HIS46      -0.2718
     11  CB         7.9400    8.6160   17.1200 C.3    46  HIS46       0.0759
     12  CG         8.6940    7.7720   18.1510 C.ar   46  HIS46       0.0818
     13  ND1        8.8160    6.4690   18.2070 N.ar   46  HIS46      -0.2268
     14  CD2        9.4000    8.2590   19.2660 C.ar   46  HIS46       0.1154
     15  CE1        9.5230    6.1520   19.2620 C.ar   46  HIS46       0.1986
     16  NE2        9.8860    7.2310   19.9090 N.ar   46  HIS46      -0.2212
     17  N         11.2460    9.2180   16.1510 N.am   47  CYS47      -0.1970
     18  CA        12.6260    9.5740   16.6320 C.3    47  CYS47       0.1712
     19  C         13.1180   10.9140   15.9850 C.2    47  CYS47       0.2296
     20  O         13.8880   11.6390   16.5850 O.2    47  CYS47      -0.2864
     21  CB        13.6270    8.4670   16.2430 C.3    47  CYS47       0.0983
     22  SG        13.4280    6.8430   17.0050 S.3    47  CYS47      -0.0798
     23  N          1.6550    5.2660   18.1520 N.3    94  HIS94      -0.1241
     24  CA         2.3290    6.0110   17.0830 C.3    94  HIS94       0.1621
     25  C          1.8330    5.1240   15.9710 C.2    94  HIS94       0.2264
     26  O          1.9190    3.9220   16.1200 O.2    94  HIS94      -0.2867
     27  CB         3.8530    5.9200   17.1680 C.3    94  HIS94       0.0745
     28  CG         4.3560    6.8350   18.2760 C.ar   94  HIS94       0.0817
     29  ND1        4.6280    8.1090   18.2280 N.ar   94  HIS94      -0.2268
     30  CD2        4.6180    6.4430   19.5490 C.ar   94  HIS94       0.1154
     31  CE1        5.0380    8.5010   19.3930 C.ar   94  HIS94       0.1986
     32  NE2        5.0340    7.4890   20.2060 N.ar   94  HIS94      -0.2212
     33  N         12.3720   -6.4370   28.4610 N.3   192  ASP192     -0.1225
     34  CA        11.5830   -5.6740   27.4300 C.3   192  ASP192      0.1805
     35  C         12.4520   -4.5840   26.8160 C.2   192  ASP192      0.2598
     36  O         13.6080   -4.4340   27.1910 O.2   192  ASP192     -0.2718
     37  CB        10.3660   -5.0320   28.2050 C.3   192  ASP192      0.1424
     38  CG         9.2390   -4.4110   27.3950 C.2   192  ASP192      0.3668
     39  OD1        9.2110   -4.5360   26.1950 O.co2 192  ASP192     -0.2456
     40  OD2        8.4110   -3.8180   28.0450 O.co2 192  ASP192     -0.2456
     41  N         11.8790   -3.8370   25.8950 N.am  193  SER193     -0.1938
     42  CA        12.5950   -2.7180   25.2440 C.3   193  SER193      0.2055
     43  C         12.0660   -1.5260   26.0820 C.2   193  SER193      0.2643
     44  O         11.0960   -1.6660   26.8020 O.2   193  SER193     -0.2714
     45  CB        12.1690   -2.6160   23.7290 C.3   193  SER193      0.2130
     46  OG        10.7550   -2.8250   23.6530 O.3   193  SER193     -0.2179
     47  N         12.7080   -0.4080   25.9770 N.am  194  CYS194     -0.1953
     48  CA        12.3060    0.8000   26.7290 C.3   194  CYS194      0.1843
     49  C         12.8020    1.9770   25.8860 C.2   194  CYS194      0.2625
     50  O         13.3300    1.7560   24.8150 O.2   194  CYS194     -0.2714
     51  CB        12.9730    0.7700   28.1100 C.3   194  CYS194      0.0997
     52  SG        12.3280    1.8590   29.4050 S.3   194  CYS194     -0.0797
     53  N         12.6300    3.1630   26.3920 N.am  195  GLN195     -0.1963
     54  CA        13.0560    4.4110   25.7120 C.3   195  GLN195      0.1733
     55  C         14.5040    4.2600   25.2870 C.2   195  GLN195      0.2616
     56  O         15.3120    3.7850   26.0730 O.2   195  GLN195     -0.2715
     57  CB        12.8940    5.5640   26.7290 C.3   195  GLN195      0.0408
     58  CG        11.4490    5.6210   27.3370 C.3   195  GLN195      0.0908
     59  CD        11.5240    6.3500   28.6890 C.2   195  GLN195      0.2608
     60  OE1       11.8310    7.5130   28.7540 O.2   195  GLN195     -0.2717
     61  NE2       11.2610    5.7180   29.7790 N.am  195  GLN195     -0.0878
     62  N         14.7980    4.6800   24.0920 N.am  196  GLY196     -0.1955
     63  CA        16.2110    4.5730   23.5970 C.3   196  GLY196      0.1869
     64  C         16.3660    3.3840   22.6970 C.2   196  GLY196      0.2309
     65  O         17.2150    3.3520   21.8360 O.2   196  GLY196     -0.2863
     66  N         13.9650    2.4780   20.8970 N.3   198  SER198     -0.1217
     67  CA        13.0540    3.0170   19.8630 C.3   198  SER198      0.1889
     68  C         13.7390    3.0150   18.4720 C.2   198  SER198      0.2288
     69  O         14.8870    3.4120   18.4020 O.2   198  SER198     -0.2866
     70  CB        12.7110    4.4570   20.2440 C.3   198  SER198      0.2089
     71  OG        12.8290    4.5850   21.6610 O.3   198  SER198     -0.2183
     72  N         11.0240   -1.1340   17.0530 N.3   216  VAL216     -0.1231
     73  CA        10.5810   -0.7180   18.4190 C.3   216  VAL216      0.1692
     74  C          9.8280    0.6210   18.2560 C.2   216  VAL216      0.2593
     75  O         10.4270    1.5800   17.7910 O.2   216  VAL216     -0.2718
     76  CB        11.8450   -0.5360   19.3520 C.3   216  VAL216      0.0266
     77  CG1       11.4120   -0.2480   20.7860 C.3   216  VAL216      0.0020
     78  CG2       12.6730   -1.8440   19.4080 C.3   216  VAL216      0.0020
     79  N          8.5770    0.6520   18.6440 N.am  217  SER217     -0.1938
     80  CA         7.7810    1.8850   18.5240 C.3   217  SER217      0.2055
     81  C          7.2920    2.5010   19.8980 C.2   217  SER217      0.2643
     82  O          7.7520    3.5610   20.3130 O.2   217  SER217     -0.2714
     83  CB         6.6060    1.4880   17.5780 C.3   217  SER217      0.2130
     84  OG         5.9300    2.6850   17.2170 O.3   217  SER217     -0.2179
     85  N          6.3670    1.8490   20.5720 N.am  218  TRP218     -0.1959
     86  CA         5.8560    2.3870   21.8650 C.3   218  TRP218      0.1771
     87  C          5.4520    1.3360   22.8790 C.2   218  TRP218      0.2620
     88  O          5.5320    0.1460   22.6610 O.2   218  TRP218     -0.2715
     89  CB         4.6710    3.3250   21.5270 C.3   218  TRP218      0.0590
     90  CG         3.5150    2.6470   20.7630 C.ar  218  TRP218      0.0006
     91  CD1        3.4840    2.4020   19.4250 C.ar  218  TRP218      0.0946
     92  CD2        2.3730    2.1630   21.3150 C.ar  218  TRP218      0.0152
     93  NE1        2.3210    1.7860   19.2630 N.ar  218  TRP218     -0.2442
     94  CE2        1.5730    1.5930   20.3380 C.ar  218  TRP218      0.0810
     95  CE3        1.9370    2.1670   22.6370 C.ar  218  TRP218      0.0012
     96  CZ2        0.3500    1.0180   20.6810 C.ar  218  TRP218      0.0191
     97  CZ3        0.7200    1.5920   22.9780 C.ar  218  TRP218      0.0001
     98  CH2       -0.0770    1.0230   21.9970 C.ar  218  TRP218      0.0015
     99  N          5.0300    1.7740   24.0090 N.am  219  GLY219     -0.1940
    100  CA         4.6070    0.8180   25.0610 C.3   219  GLY219      0.2014
    101  C          4.3610    1.6230   26.3350 C.2   219  GLY219      0.2639
    102  O          4.9160    2.7010   26.4720 O.2   219  GLY219     -0.2714
    103  N          3.5610    1.1060   27.2260 N.am  220  ARG220     -0.1963
    104  CA         3.3010    1.8710   28.4830 C.3   220  ARG220      0.1729
    105  C          4.3510    1.3580   29.4640 C.2   220  ARG220      0.2617
    106  O          4.4560    0.1740   29.7440 O.2   220  ARG220     -0.2715
    107  CB         1.8780    1.5790   29.0610 C.3   220  ARG220      0.0348
    108  CG         1.7180    2.4700   30.3240 C.3   220  ARG220      0.0492
    109  CD         0.3930    2.2910   31.0630 C.3   220  ARG220      0.2205
    110  NE         0.5010    3.0950   32.3300 N.pl3 220  ARG220     -0.0865
    111  CZ         0.5800    2.5310   33.5100 C.cat 220  ARG220      0.5346
    112  NH1        0.8350    1.2570   33.6250 N.pl3 220  ARG220      0.1354
    113  NH2        0.3970    3.2770   34.5600 N.pl3 220  ARG220      0.1354
    114  N          5.1010    2.2940   29.9610 N.am  221  GLY221     -0.1940
    115  CA         6.1640    1.9340   30.9200 C.3   221  GLY221      0.2014
    116  C          7.1280    1.0240   30.1670 C.2   221  GLY221      0.2639
    117  O          7.2130    1.0610   28.9480 O.2   221  GLY221     -0.2714
    118  N          7.8320    0.2460   30.9200 N.am  222  CYS222     -0.1967
    119  CA         8.8100   -0.7100   30.3660 C.3   222  CYS222      0.1712
    120  C          8.7390   -1.8450   31.3680 C.2   222  CYS222      0.2296
    121  O          8.7890   -1.6220   32.5740 O.2   222  CYS222     -0.2864
    122  CB        10.2060   -0.1040   30.3400 C.3   222  CYS222      0.0983
    123  SG        10.3480    1.4280   29.3960 S.3   222  CYS222     -0.0798
    124  N          1.4550   -4.9700   29.6360 N.3   227  LYS227     -0.1231
    125  CA         1.7800   -3.7820   28.7780 C.3   227  LYS227      0.1678
    126  C          2.9590   -4.2330   27.8840 C.2   227  LYS227      0.2434
    127  O          4.1200   -3.9360   28.1310 O.2   227  LYS227     -0.2733
    128  CB         2.1900   -2.5680   29.6480 C.3   227  LYS227      0.0284
    129  CG         1.0100   -2.1780   30.5850 C.3   227  LYS227      0.0035
    130  CD        -0.2390   -1.6770   29.7810 C.3   227  LYS227      0.0206
    131  CE        -1.4540   -1.5790   30.7130 C.3   227  LYS227      0.1093
    132  NZ        -2.5800   -0.8840   30.0220 N.3   227  LYS227     -0.1314
    133  N          2.6670   -4.9720   26.8420 N.am  228  PRO228     -0.2718
    134  CA         3.7020   -5.4600   25.8910 C.3   228  PRO228      0.1535
    135  C          4.4070   -4.2730   25.2150 C.2   228  PRO228      0.2599
    136  O          4.0820   -3.1260   25.4540 O.2   228  PRO228     -0.2715
    137  CB         2.9220   -6.3270   24.8780 C.3   228  PRO228      0.0310
    138  CG         1.6080   -6.6970   25.6300 C.3   228  PRO228      0.0237
    139  CD         1.2960   -5.4360   26.4530 C.3   228  PRO228      0.0939
    140  N          5.3380   -4.5820   24.3750 N.am  229  GLY229     -0.1941
    141  CA         6.0490   -3.5090   23.6640 C.3   229  GLY229      0.2014
    142  C          5.3100   -3.6260   22.3410 C.2   229  GLY229      0.2639
    143  O          4.9420   -4.7330   21.9680 O.2   229  GLY229     -0.2714
    144  N          5.1060   -2.5230   21.6710 N.am  230  VAL230     -0.1963
    145  CA         4.3870   -2.5630   20.3570 C.3   230  VAL230      0.1727
    146  C          5.4580   -2.1250   19.3240 C.2   230  VAL230      0.2616
    147  O          6.1980   -1.1690   19.4960 O.2   230  VAL230     -0.2715
    148  CB         3.1750   -1.5900   20.4350 C.3   230  VAL230      0.0290
    149  CG1        2.2140   -1.8640   19.2440 C.3   230  VAL230      0.0023
    150  CG2        2.4240   -1.8250   21.7580 C.3   230  VAL230      0.0023
    151  N          5.4780   -2.8670   18.2610 N.am  231  TYR231     -0.1974
    152  CA         6.4170   -2.6880   17.1220 C.3   231  TYR231      0.1639
    153  C          5.6740   -2.4140   15.8260 C.2   231  TYR231      0.2290
    154  O          4.5800   -2.9170   15.6920 O.2   231  TYR231     -0.2864
    155  CB         7.2190   -3.9730   16.9210 C.3   231  TYR231      0.0560
    156  CG         7.9660   -4.3160   18.2030 C.ar  231  TYR231     -0.0198
    157  CD1        7.2750   -4.8200   19.2860 C.ar  231  TYR231     -0.0009
    158  CD2        9.3260   -4.0810   18.3090 C.ar  231  TYR231     -0.0009
    159  CE1        7.9210   -5.0760   20.4750 C.ar  231  TYR231      0.0417
    160  CE2        9.9740   -4.3400   19.4960 C.ar  231  TYR231      0.0417
    161  CZ         9.2810   -4.8350   20.5920 C.ar  231  TYR231      0.1957
    162  OH         9.9310   -5.0310   21.7970 O.3   231  TYR231     -0.2866
@<TRIPOS>BOND
     1     7     8    1
     2   154   153    2
     3   153   152    1
     4    25    26    2
     5    25    24    1
     6    19    20    2
     7    19    18    1
     8     8     9    1
     9     8    11    1
    10    17     9   am
    11    17    18    1
    12    21    18    1
    13    21    22    1
    14     9    10    2
    15   155   152    1
    16   155   156    1
    17    22     6    1
    18    72    73    1
    19    24    27    1
    20    24    23    1
    21    11    12    1
    22   152   151    1
    23    27    28    1
    24     4     3    2
    25    84    83    1
    26    83    80    1
    27     5     2    1
    28     5     6    1
    29     3     2    1
    30    75    74    2
    31    12    13   ar
    32    12    14   ar
    33   156   158   ar
    34   156   157   ar
    35    13    15   ar
    36    29    28   ar
    37    29    31   ar
    38    74    73    1
    39    74    79   am
    40   151   146   am
    41    28    30   ar
    42   158   160   ar
    43    69    68    2
    44    73    76    1
    45    68    67    1
    46     2     1    1
    47    80    79    1
    48    80    81    1
    49   149   148    1
    50    15    16   ar
    51    93    91   ar
    52    93    94   ar
    53    14    16   ar
    54   157   159   ar
    55   146   147    2
    56   146   145    1
    57    76    78    1
    58    76    77    1
    59    31    32   ar
    60    91    90   ar
    61   160   161   ar
    62    30    32   ar
    63    67    70    1
    64    67    66    1
    65    81    82    2
    66    81    85   am
    67    70    71    1
    68    94    96   ar
    69    94    92   ar
    70   145   148    1
    71   145   144    1
    72   148   150    1
    73   159   161   ar
    74    85    86    1
    75   161   162    1
    76    96    98   ar
    77    90    92   ar
    78    90    89    1
    79    92    95   ar
    80    89    86    1
    81   144   142   am
    82    65    64    2
    83    86    87    1
    84   143   142    2
    85    98    97   ar
    86   142   141    1
    87    95    97   ar
    88    88    87    2
    89    64    63    1
    90    87    99   am
    91    63    62    1
    92    46    45    1
    93   141   140    1
    94    45    42    1
    95    99   100    1
    96    62    55   am
    97   140   135   am
    98    50    49    2
    99   137   138    1
   100   137   134    1
   101   100   101    1
   102   135   136    2
   103   135   134    1
   104    42    41    1
   105    42    43    1
   106    55    54    1
   107    55    56    2
   108   138   139    1
   109    54    53    1
   110    54    57    1
   111    49    53   am
   112    49    48    1
   113   134   133    1
   114    41    35   am
   115    47    43   am
   116    47    48    1
   117    43    44    2
   118    39    38   ar
   119   101   102    2
   120   101   103   am
   121   139   133    1
   122    48    51    1
   123    57    58    1
   124    35    36    2
   125    35    34    1
   126   133   126   am
   127   103   104    1
   128    58    59    1
   129    38    40   ar
   130    38    37    1
   131    34    37    1
   132    34    33    1
   133   126   127    2
   134   126   125    1
   135    51    52    1
   136   104   107    1
   137   104   105    1
   138    59    60    2
   139    59    61   am
   140   125   124    1
   141   125   128    1
   142   117   116    2
   143   107   108    1
   144   123    52    1
   145   123   122    1
   146   105   106    2
   147   105   114   am
   148   128   129    1
   149   130   129    1
   150   130   131    1
   151   114   115    1
   152   132   131    1
   153   116   118   am
   154   116   115    1
   155   108   109    1
   156   122   119    1
   157   119   118    1
   158   119   120    1
   159   109   110    1
   160   120   121    2
   161   110   111    2
   162   111   112    1
   163   111   113    1
