@<TRIPOS>MOLECULE
tmp/1gjaB01.pdb
 169 169 0 0 0
SMALL
GASTEIGER

@<TRIPOS>ATOM
      1  N         20.0210    9.1710   20.0200 N.3    30  VAL30      -0.1231
      2  CA        18.6130    9.4360   19.6940 C.3    30  VAL30       0.1692
      3  C         17.8290    8.0950   19.6660 C.2    30  VAL30       0.2592
      4  O         16.9750    7.8710   20.5070 O.2    30  VAL30      -0.2718
      5  CB        18.5550   10.1600   18.2870 C.3    30  VAL30       0.0266
      6  CG1       17.1010   10.4600   17.8730 C.3    30  VAL30       0.0020
      7  CG2       19.3070   11.4940   18.3360 C.3    30  VAL30       0.0020
      8  N         18.1540    7.2710   18.7050 N.am   31  CYS31      -0.1970
      9  CA        17.4740    5.9700   18.5460 C.3    31  CYS31       0.1712
     10  C         18.3450    4.9570   17.8390 C.2    31  CYS31       0.2296
     11  O         19.4390    5.2610   17.4130 O.2    31  CYS31      -0.2864
     12  CB        16.1650    6.1830   17.7240 C.3    31  CYS31       0.0983
     13  SG        14.7430    6.9610   18.5190 S.3    31  CYS31      -0.0798
     14  N          8.9460    8.6780   14.6830 N.3    46  HIS46      -0.1226
     15  CA         8.8540    9.4340   15.9720 C.3    46  HIS46       0.1752
     16  C         10.1980    9.8180   16.5710 C.2    46  HIS46       0.2596
     17  O         10.2340   10.6480   17.4490 O.2    46  HIS46      -0.2718
     18  CB         7.9610    8.5940   16.9840 C.3    46  HIS46       0.0759
     19  CG         8.6440    7.7150   18.0350 C.ar   46  HIS46       0.0818
     20  ND1        8.6180    6.4040   18.1190 N.ar   46  HIS46      -0.2268
     21  CD2        9.4090    8.1470   19.1280 C.ar   46  HIS46       0.1154
     22  CE1        9.2960    6.0280   19.1580 C.ar   46  HIS46       0.1986
     23  NE2        9.7750    7.0660   19.7720 N.ar   46  HIS46      -0.2212
     24  N         11.2530    9.2320   16.0880 N.am   47  CYS47      -0.1970
     25  CA        12.6120    9.5590   16.6100 C.3    47  CYS47       0.1712
     26  C         13.0890   10.8710   15.9520 C.2    47  CYS47       0.2296
     27  O         13.8990   11.5900   16.5120 O.2    47  CYS47      -0.2864
     28  CB        13.5930    8.4390   16.2380 C.3    47  CYS47       0.0983
     29  SG        13.3820    6.8400   17.0410 S.3    47  CYS47      -0.0798
     30  N          1.6830    5.2900   18.1290 N.3    94  HIS94      -0.1241
     31  CA         2.3450    6.0050   17.0280 C.3    94  HIS94       0.1621
     32  C          1.8370    5.1320   15.9000 C.2    94  HIS94       0.2264
     33  O          1.9350    3.9260   16.0400 O.2    94  HIS94      -0.2867
     34  CB         3.8680    5.8860   17.0730 C.3    94  HIS94       0.0745
     35  CG         4.4800    6.6950   18.2040 C.ar   94  HIS94       0.0817
     36  ND1        4.4960    8.0040   18.3170 N.ar   94  HIS94      -0.2268
     37  CD2        5.1270    6.1940   19.3240 C.ar   94  HIS94       0.1154
     38  CE1        5.1010    8.3220   19.4180 C.ar   94  HIS94       0.1986
     39  NE2        5.4810    7.2430   20.0240 N.ar   94  HIS94      -0.2212
     40  N         21.6170    6.3010   29.6490 N.3   150  TYR150     -0.1241
     41  CA        21.5270    5.0670   28.8230 C.3   150  TYR150      0.1605
     42  C         22.7850    4.2570   29.1590 C.2   150  TYR150      0.2264
     43  O         23.8060    4.8370   29.5020 O.2   150  TYR150     -0.2867
     44  CB        21.5560    5.3860   27.3250 C.3   150  TYR150      0.0534
     45  CG        20.2740    6.0550   26.8040 C.ar  150  TYR150     -0.0201
     46  CD1       19.0430    5.7090   27.3030 C.ar  150  TYR150     -0.0009
     47  CD2       20.3440    7.0010   25.8140 C.ar  150  TYR150     -0.0009
     48  CE1       17.9080    6.2900   26.8200 C.ar  150  TYR150      0.0417
     49  CE2       19.2000    7.5810   25.3280 C.ar  150  TYR150      0.0417
     50  CZ        17.9760    7.2220   25.8380 C.ar  150  TYR150      0.1957
     51  OH        16.7930    7.7640   25.4000 O.3   150  TYR150     -0.2866
     52  N         12.0490   -6.3500   28.5370 N.3   192  ASP192     -0.1225
     53  CA        11.2570   -5.5730   27.5210 C.3   192  ASP192      0.1805
     54  C         12.1520   -4.4640   26.9260 C.2   192  ASP192      0.2598
     55  O         13.2780   -4.2570   27.3750 O.2   192  ASP192     -0.2718
     56  CB        10.0350   -4.9270   28.2420 C.3   192  ASP192      0.1424
     57  CG         8.9380   -4.3090   27.3270 C.2   192  ASP192      0.3668
     58  OD1        8.9900   -4.5180   26.1320 O.co2 192  ASP192     -0.2456
     59  OD2        8.0690   -3.6430   27.8750 O.co2 192  ASP192     -0.2456
     60  N         11.6290   -3.7880   25.9340 N.am  193  SER193     -0.1938
     61  CA        12.3720   -2.6800   25.2970 C.3   193  SER193      0.2055
     62  C         11.9070   -1.5020   26.2050 C.2   193  SER193      0.2643
     63  O         10.9780   -1.6430   26.9880 O.2   193  SER193     -0.2714
     64  CB        11.9090   -2.5000   23.7990 C.3   193  SER193      0.2130
     65  OG        10.5180   -2.7910   23.7360 O.3   193  SER193     -0.2179
     66  N         12.5560   -0.3850   26.0790 N.am  194  CYS194     -0.1953
     67  CA        12.2000    0.7910   26.9010 C.3   194  CYS194      0.1843
     68  C         12.6980    2.0320   26.1300 C.2   194  CYS194      0.2625
     69  O         13.2070    1.9320   25.0180 O.2   194  CYS194     -0.2714
     70  CB        12.8860    0.6660   28.3080 C.3   194  CYS194      0.0997
     71  SG        12.2170    1.7140   29.6250 S.3   194  CYS194     -0.0797
     72  N         12.5280    3.1540   26.7620 N.am  195  GLN195     -0.1963
     73  CA        12.9270    4.4600   26.2090 C.3   195  GLN195      0.1733
     74  C         14.3750    4.3860   25.7470 C.2   195  GLN195      0.2616
     75  O         15.2340    3.9470   26.4870 O.2   195  GLN195     -0.2715
     76  CB        12.7050    5.5140   27.3330 C.3   195  GLN195      0.0408
     77  CG        12.7210    6.9640   26.8050 C.3   195  GLN195      0.0908
     78  CD        12.2610    7.8850   27.9460 C.2   195  GLN195      0.2608
     79  OE1       11.6080    7.4600   28.8760 O.2   195  GLN195     -0.2717
     80  NE2       12.5650    9.1370   27.9380 N.am  195  GLN195     -0.0878
     81  N         14.6090    4.8190   24.5380 N.am  196  GLY196     -0.1955
     82  CA        15.9860    4.7910   23.9820 C.3   196  GLY196      0.1869
     83  C         16.0990    3.6230   23.0170 C.2   196  GLY196      0.2309
     84  O         16.9650    3.5700   22.1730 O.2   196  GLY196     -0.2863
     85  N         13.6310    2.7220   20.8690 N.3   198  SER198     -0.1217
     86  CA        12.8220    3.0170   19.6200 C.3   198  SER198      0.1889
     87  C         13.6630    3.0050   18.3350 C.2   198  SER198      0.2288
     88  O         14.8170    3.3830   18.3600 O.2   198  SER198     -0.2866
     89  CB        12.1790    4.4030   19.7150 C.3   198  SER198      0.2089
     90  OG        11.1180    4.2300   20.6420 O.3   198  SER198     -0.2183
     91  N         11.0040   -1.2020   17.0940 N.3   216  VAL216     -0.1231
     92  CA        10.5330   -0.7850   18.4490 C.3   216  VAL216      0.1692
     93  C          9.7660    0.5590   18.2380 C.2   216  VAL216      0.2593
     94  O         10.3660    1.4760   17.6870 O.2   216  VAL216     -0.2718
     95  CB        11.7930   -0.5810   19.4040 C.3   216  VAL216      0.0266
     96  CG1       11.3870   -0.1470   20.8230 C.3   216  VAL216      0.0020
     97  CG2       12.6220   -1.8480   19.5540 C.3   216  VAL216      0.0020
     98  N          8.5190    0.6030   18.6740 N.am  217  SER217     -0.1938
     99  CA         7.6810    1.8280   18.5310 C.3   217  SER217      0.2055
    100  C          7.1690    2.4640   19.8690 C.2   217  SER217      0.2643
    101  O          7.4790    3.6210   20.1530 O.2   217  SER217     -0.2714
    102  CB         6.4770    1.4440   17.6070 C.3   217  SER217      0.2130
    103  OG         5.7700    2.6540   17.3410 O.3   217  SER217     -0.2179
    104  N          6.3980    1.7360   20.6480 N.am  218  TRP218     -0.1959
    105  CA         5.8740    2.3090   21.9320 C.3   218  TRP218      0.1771
    106  C          5.4620    1.2390   22.9280 C.2   218  TRP218      0.2620
    107  O          5.5810    0.0510   22.6920 O.2   218  TRP218     -0.2715
    108  CB         4.6210    3.2350   21.6570 C.3   218  TRP218      0.0590
    109  CG         3.4480    2.5500   20.9130 C.ar  218  TRP218      0.0006
    110  CD1        3.3820    2.3240   19.5650 C.ar  218  TRP218      0.0946
    111  CD2        2.3090    2.0810   21.4830 C.ar  218  TRP218      0.0152
    112  NE1        2.2110    1.7340   19.4020 N.ar  218  TRP218     -0.2442
    113  CE2        1.4780    1.5430   20.4920 C.ar  218  TRP218      0.0810
    114  CE3        1.8850    2.0730   22.8060 C.ar  218  TRP218      0.0012
    115  CZ2        0.2380    0.9950   20.8340 C.ar  218  TRP218      0.0191
    116  CZ3        0.6530    1.5170   23.1450 C.ar  218  TRP218      0.0001
    117  CH2       -0.1710    0.9880   22.1610 C.ar  218  TRP218      0.0015
    118  N          4.9800    1.6660   24.0500 N.am  219  GLY219     -0.1940
    119  CA         4.5340    0.7150   25.0920 C.3   219  GLY219      0.2014
    120  C          4.2210    1.5530   26.3140 C.2   219  GLY219      0.2639
    121  O          4.6850    2.6770   26.4070 O.2   219  GLY219     -0.2714
    122  N          3.4580    1.0250   27.2250 N.am  220  ARG220     -0.1963
    123  CA         3.1230    1.8090   28.4500 C.3   220  ARG220      0.1729
    124  C          4.1370    1.3150   29.4740 C.2   220  ARG220      0.2617
    125  O          4.2030    0.1470   29.8020 O.2   220  ARG220     -0.2715
    126  CB         1.6800    1.5030   28.9360 C.3   220  ARG220      0.0348
    127  CG         1.4410    2.4010   30.1780 C.3   220  ARG220      0.0492
    128  CD         0.0110    2.2770   30.7050 C.3   220  ARG220      0.2205
    129  NE         0.0020    2.9470   32.0440 N.pl3 220  ARG220     -0.0865
    130  CZ        -0.0490    2.2740   33.1710 C.cat 220  ARG220      0.5346
    131  NH1       -0.0870    0.9660   33.1880 N.pl3 220  ARG220      0.1354
    132  NH2       -0.0550    2.9640   34.2770 N.pl3 220  ARG220      0.1354
    133  N          4.9090    2.2420   29.9640 N.am  221  GLY221     -0.1940
    134  CA         5.9550    1.8960   30.9670 C.3   221  GLY221      0.2014
    135  C          6.9270    0.9270   30.2590 C.2   221  GLY221      0.2639
    136  O          6.9730    0.8880   29.0440 O.2   221  GLY221     -0.2714
    137  N          7.6800    0.1910   31.0140 N.am  222  CYS222     -0.1967
    138  CA         8.6440   -0.7790   30.4390 C.3   222  CYS222      0.1712
    139  C          8.5690   -2.0040   31.3320 C.2   222  CYS222      0.2296
    140  O          8.6990   -1.8780   32.5300 O.2   222  CYS222     -0.2864
    141  CB        10.0410   -0.1850   30.4610 C.3   222  CYS222      0.0983
    142  SG        10.2510    1.3280   29.4970 S.3   222  CYS222     -0.0798
    143  N          1.2240   -5.0200   29.6780 N.3   227  LYS227     -0.1231
    144  CA         1.5540   -3.8330   28.8230 C.3   227  LYS227      0.1678
    145  C          2.7510   -4.2970   27.9830 C.2   227  LYS227      0.2434
    146  O          3.8940   -4.0070   28.3030 O.2   227  LYS227     -0.2733
    147  CB         1.9230   -2.6270   29.7170 C.3   227  LYS227      0.0284
    148  CG         0.7470   -2.2840   30.6760 C.3   227  LYS227      0.0035
    149  CD        -0.5000   -1.7780   29.8850 C.3   227  LYS227      0.0206
    150  CE        -1.7590   -1.8720   30.7490 C.3   227  LYS227      0.1093
    151  NZ        -2.8690   -1.1790   30.0550 N.3   227  LYS227     -0.1314
    152  N          2.4560   -5.0300   26.9310 N.am  228  PRO228     -0.2718
    153  CA         3.4800   -5.5670   25.9870 C.3   228  PRO228      0.1535
    154  C          4.1860   -4.4250   25.2230 C.2   228  PRO228      0.2599
    155  O          3.7730   -3.2780   25.2700 O.2   228  PRO228     -0.2715
    156  CB         2.7180   -6.4600   25.0150 C.3   228  PRO228      0.0310
    157  CG         1.3580   -6.7180   25.6930 C.3   228  PRO228      0.0237
    158  CD         1.0810   -5.4450   26.5050 C.3   228  PRO228      0.0939
    159  N          5.2230   -4.7480   24.5160 N.am  229  GLY229     -0.1941
    160  CA         5.9010   -3.6740   23.7650 C.3   229  GLY229      0.2014
    161  C          5.1860   -3.7370   22.4280 C.2   229  GLY229      0.2638
    162  O          4.7790   -4.8150   22.0280 O.2   229  GLY229     -0.2714
    163  N          5.0520   -2.6130   21.7870 N.am  230  VAL230     -0.1977
    164  CA         4.3690   -2.5580   20.4670 C.3   230  VAL230      0.1596
    165  C          5.4400   -2.1570   19.4360 C.2   230  VAL230      0.2287
    166  O          6.2620   -1.2660   19.6440 O.2   230  VAL230     -0.2864
    167  CB         3.2360   -1.5190   20.5470 C.3   230  VAL230      0.0276
    168  CG1        2.3350   -1.6440   19.2770 C.3   230  VAL230      0.0022
    169  CG2        2.4000   -1.8110   21.7910 C.3   230  VAL230      0.0022
@<TRIPOS>BOND
     1    14    15    1
     2    32    33    2
     3    32    31    1
     4    26    27    2
     5    26    25    1
     6    15    16    1
     7    15    18    1
     8    24    16   am
     9    24    25    1
    10    28    25    1
    11    28    29    1
    12    16    17    2
    13    18    19    1
    14    31    34    1
    15    31    30    1
    16    29    13    1
    17    34    35    1
    18    91    92    1
    19   103   102    1
    20    11    10    2
    21   102    99    1
    22    94    93    2
    23    12    13    1
    24    12     9    1
    25    10     9    1
    26     6     5    1
    27    19    20   ar
    28    19    21   ar
    29    20    22   ar
    30    35    36   ar
    31    35    37   ar
    32    93    92    1
    33    93    98   am
    34     5     7    1
    35     5     2    1
    36    36    38   ar
    37    87    88    2
    38    87    86    1
    39    92    95    1
    40    99    98    1
    41    99   100    1
    42     9     8    1
    43     8     3   am
    44    21    23   ar
    45    22    23   ar
    46   168   167    1
    47    37    39   ar
    48   112   110   ar
    49   112   113   ar
    50    95    97    1
    51    95    96    1
    52    38    39   ar
    53   165   166    2
    54   165   164    1
    55   110   109   ar
    56    86    89    1
    57    86    85    1
    58     3     2    1
    59     3     4    2
    60     2     1    1
    61    89    90    1
    62   100   101    2
    63   100   104   am
    64   164   167    1
    65   164   163    1
    66   113   115   ar
    67   113   111   ar
    68   167   169    1
    69   104   105    1
    70   115   117   ar
    71   109   111   ar
    72   109   108    1
    73   111   114   ar
    74   108   105    1
    75   163   161   am
    76   105   106    1
    77   162   161    2
    78   117   116   ar
    79    84    83    2
    80   161   160    1
    81   107   106    2
    82   114   116   ar
    83   106   118   am
    84    83    82    1
    85    65    64    1
    86   160   159    1
    87    64    61    1
    88    82    81    1
    89   118   119    1
    90   159   154   am
    91    81    74   am
    92   156   157    1
    93   156   153    1
    94    69    68    2
    95   119   120    1
    96   154   155    2
    97   154   153    1
    98    61    60    1
    99    61    62    1
   100    49    47   ar
   101    49    50   ar
   102    51    50    1
   103   157   158    1
   104    74    73    1
   105    74    75    2
   106    47    45   ar
   107    50    48   ar
   108    60    54   am
   109   153   152    1
   110    66    62   am
   111    66    67    1
   112    68    72   am
   113    68    67    1
   114    58    57   ar
   115    62    63    2
   116    73    72    1
   117    73    76    1
   118   120   121    2
   119   120   122   am
   120   158   152    1
   121    45    46   ar
   122    45    44    1
   123    77    76    1
   124    77    78    1
   125    48    46   ar
   126    67    70    1
   127    54    55    2
   128    54    53    1
   129   152   145   am
   130   122   123    1
   131    44    41    1
   132    57    59   ar
   133    57    56    1
   134    53    56    1
   135    53    52    1
   136    80    78   am
   137    78    79    2
   138   145   146    2
   139   145   144    1
   140    70    71    1
   141   123   126    1
   142   123   124    1
   143   144   143    1
   144   144   147    1
   145    41    42    1
   146    41    40    1
   147   126   127    1
   148   136   135    2
   149    42    43    2
   150   124   125    2
   151   124   133   am
   152   142    71    1
   153   142   141    1
   154   147   148    1
   155   149   148    1
   156   149   150    1
   157   133   134    1
   158   151   150    1
   159   127   128    1
   160   135   134    1
   161   135   137   am
   162   138   141    1
   163   138   137    1
   164   138   139    1
   165   128   129    1
   166   139   140    2
   167   129   130    2
   168   130   131    1
   169   130   132    1
