@<TRIPOS>MOLECULE
tmp/1gjbB01.pdb
 157 155 0 0 0
SMALL
GASTEIGER

@<TRIPOS>ATOM
      1  N         19.6510    9.1970   19.6190 N.3    30  VAL30      -0.1231
      2  CA        18.2490    9.4410   19.1550 C.3    30  VAL30       0.1692
      3  C         17.4930    8.1170   19.1820 C.2    30  VAL30       0.2592
      4  O         16.6670    7.8690   20.0480 O.2    30  VAL30      -0.2718
      5  CB        18.3180   10.0420   17.6940 C.3    30  VAL30       0.0266
      6  CG1       16.9160   10.1840   17.0490 C.3    30  VAL30       0.0020
      7  CG2       18.9760   11.4350   17.7530 C.3    30  VAL30       0.0020
      8  N         17.8260    7.3030   18.2310 N.am   31  CYS31      -0.1970
      9  CA        17.1540    6.0080   18.1450 C.3    31  CYS31       0.1712
     10  C         18.0980    5.0480   17.4980 C.2    31  CYS31       0.2296
     11  O         19.1500    5.4360   17.0160 O.2    31  CYS31      -0.2864
     12  CB        15.8430    6.1920   17.2890 C.3    31  CYS31       0.0983
     13  SG        14.3960    7.0090   17.9990 S.3    31  CYS31      -0.0798
     14  N          8.7510    8.6500   14.2810 N.3    46  HIS46      -0.1226
     15  CA         8.7160    9.5230   15.4930 C.3    46  HIS46       0.1752
     16  C         10.0630    9.9600   16.0400 C.2    46  HIS46       0.2596
     17  O         10.1160   10.9100   16.8020 O.2    46  HIS46      -0.2718
     18  CB         7.8600    8.8210   16.6450 C.3    46  HIS46       0.0759
     19  CG         8.5060    7.8540   17.6470 C.ar   46  HIS46       0.0818
     20  ND1        8.6280    6.5530   17.5450 N.ar   46  HIS46      -0.2268
     21  CD2        9.0610    8.1860   18.8810 C.ar   46  HIS46       0.1154
     22  CE1        9.1980    6.0890   18.6090 C.ar   46  HIS46       0.1986
     23  NE2        9.4670    7.0580   19.4220 N.ar   46  HIS46      -0.2212
     24  N         11.0960    9.2760   15.6390 N.am   47  CYS47      -0.1970
     25  CA        12.4690    9.6180   16.1150 C.3    47  CYS47       0.1712
     26  C         12.9620   10.9050   15.4610 C.2    47  CYS47       0.2296
     27  O         13.7800   11.6200   16.0120 O.2    47  CYS47      -0.2864
     28  CB        13.4260    8.4980   15.7420 C.3    47  CYS47       0.0983
     29  SG        13.1380    6.8550   16.4100 S.3    47  CYS47      -0.0798
     30  N         10.1730   15.4720   15.6100 N.3    50  ASP50      -0.1239
     31  CA        10.3930   16.8220   16.2120 C.3    50  ASP50       0.1674
     32  C         11.5330   17.6030   15.6050 C.2    50  ASP50       0.2266
     33  O         11.5490   18.8000   15.7780 O.2    50  ASP50      -0.2867
     34  CB        10.6290   16.6540   17.7230 C.3    50  ASP50       0.1410
     35  CG         9.3640   16.0770   18.4410 C.2    50  ASP50       0.3668
     36  OD1        9.5950   15.3580   19.3990 O.co2  50  ASP50      -0.2456
     37  OD2        8.2470   16.3700   18.0330 O.co2  50  ASP50      -0.2456
     38  N          1.5160    5.4420   17.8930 N.3    94  HIS94      -0.1241
     39  CA         2.0610    6.1670   16.7190 C.3    94  HIS94       0.1621
     40  C          1.5570    5.2570   15.6160 C.2    94  HIS94       0.2264
     41  O          1.6440    4.0510   15.7640 O.2    94  HIS94      -0.2867
     42  CB         3.5850    6.1520   16.6800 C.3    94  HIS94       0.0745
     43  CG         4.2300    6.8220   17.9060 C.ar   94  HIS94       0.0817
     44  ND1        4.4250    8.1010   18.0850 N.ar   94  HIS94      -0.2268
     45  CD2        4.7110    6.1900   19.0430 C.ar   94  HIS94       0.1154
     46  CE1        4.9830    8.2860   19.2390 C.ar   94  HIS94       0.1986
     47  NE2        5.1570    7.1370   19.8230 N.ar   94  HIS94      -0.2212
     48  N         20.9590    6.3470   29.8380 N.3   150  TYR150     -0.1241
     49  CA        20.9210    5.0850   29.0340 C.3   150  TYR150      0.1605
     50  C         22.2260    4.3240   29.3690 C.2   150  TYR150      0.2264
     51  O         23.2260    4.9410   29.7240 O.2   150  TYR150     -0.2867
     52  CB        20.9680    5.3390   27.5100 C.3   150  TYR150      0.0534
     53  CG        19.7670    6.0880   26.9210 C.ar  150  TYR150     -0.0201
     54  CD1       18.4900    5.9800   27.4570 C.ar  150  TYR150     -0.0009
     55  CD2       19.9650    6.8760   25.8100 C.ar  150  TYR150     -0.0009
     56  CE1       17.4390    6.6490   26.8820 C.ar  150  TYR150      0.0417
     57  CE2       18.9160    7.5460   25.2380 C.ar  150  TYR150      0.0417
     58  CZ        17.6410    7.4380   25.7670 C.ar  150  TYR150      0.1957
     59  OH        16.5720    8.1010   25.1860 O.3   150  TYR150     -0.2866
     60  N         11.4090   -6.1530   28.4410 N.3   192  ASP192     -0.1225
     61  CA        10.6180   -5.4220   27.4170 C.3   192  ASP192      0.1805
     62  C         11.5650   -4.3780   26.8180 C.2   192  ASP192      0.2598
     63  O         12.7310   -4.3220   27.1800 O.2   192  ASP192     -0.2718
     64  CB         9.4300   -4.7600   28.1900 C.3   192  ASP192      0.1424
     65  CG         8.3450   -4.0450   27.3700 C.2   192  ASP192      0.3668
     66  OD1        8.2890   -4.1810   26.1650 O.co2 192  ASP192     -0.2456
     67  OD2        7.5900   -3.3760   28.0450 O.co2 192  ASP192     -0.2456
     68  N         11.0410   -3.5800   25.9210 N.am  193  SER193     -0.1938
     69  CA        11.8300   -2.5110   25.2770 C.3   193  SER193      0.2055
     70  C         11.4160   -1.3210   26.1550 C.2   193  SER193      0.2643
     71  O         10.5500   -1.4480   27.0160 O.2   193  SER193     -0.2714
     72  CB        11.3820   -2.3080   23.8080 C.3   193  SER193      0.2130
     73  OG        10.0170   -2.7060   23.7820 O.3   193  SER193     -0.2179
     74  N         12.0210   -0.1960   25.9480 N.am  194  CYS194     -0.1953
     75  CA        11.6630    0.9830   26.7670 C.3   194  CYS194      0.1843
     76  C         12.2330    2.1650   26.0410 C.2   194  CYS194      0.2625
     77  O         12.8660    2.0080   25.0070 O.2   194  CYS194     -0.2714
     78  CB        12.2650    0.8730   28.1950 C.3   194  CYS194      0.0997
     79  SG        11.6590    2.0450   29.4300 S.3   194  CYS194     -0.0797
     80  N         11.9770    3.2820   26.6400 N.am  195  GLN195     -0.1963
     81  CA        12.4160    4.5950   26.1330 C.3   195  GLN195      0.1733
     82  C         13.8920    4.4800   25.8010 C.2   195  GLN195      0.2616
     83  O         14.6870    4.0700   26.6330 O.2   195  GLN195     -0.2715
     84  CB        12.1130    5.6190   27.2690 C.3   195  GLN195      0.0408
     85  CG        10.5830    5.5880   27.5950 C.3   195  GLN195      0.0908
     86  CD        10.3380    5.9570   29.0550 C.2   195  GLN195      0.2608
     87  OE1       10.5330    7.0880   29.4410 O.2   195  GLN195     -0.2717
     88  NE2        9.9220    5.0560   29.8900 N.am  195  GLN195     -0.0878
     89  N         14.1980    4.8460   24.6030 N.am  196  GLY196     -0.1955
     90  CA        15.6130    4.7800   24.1490 C.3   196  GLY196      0.1869
     91  C         15.7450    3.6380   23.1670 C.2   196  GLY196      0.2309
     92  O         16.6800    3.5900   22.3880 O.2   196  GLY196     -0.2863
     93  N         13.3280    2.8950   20.8430 N.3   198  SER198     -0.1217
     94  CA        12.5810    3.2540   19.5840 C.3   198  SER198      0.1889
     95  C         13.4320    3.1540   18.3100 C.2   198  SER198      0.2288
     96  O         14.5750    3.5620   18.3460 O.2   198  SER198     -0.2866
     97  CB        12.0910    4.6840   19.5980 C.3   198  SER198      0.2089
     98  OG        11.1840    4.7530   20.7020 O.3   198  SER198     -0.2183
     99  N         10.7850   -1.0210   17.2340 N.3   216  VAL216     -0.1231
    100  CA        10.2750   -0.6050   18.5670 C.3   216  VAL216      0.1692
    101  C          9.5400    0.6950   18.2890 C.2   216  VAL216      0.2593
    102  O         10.0960    1.5390   17.6070 O.2   216  VAL216     -0.2718
    103  CB        11.4950   -0.4100   19.5260 C.3   216  VAL216      0.0266
    104  CG1       10.9980   -0.1500   20.9540 C.3   216  VAL216      0.0020
    105  CG2       12.3940   -1.6700   19.5740 C.3   216  VAL216      0.0020
    106  N          8.3490    0.8170   18.8090 N.am  217  SER217     -0.1938
    107  CA         7.5680    2.0630   18.5730 C.3   217  SER217      0.2055
    108  C          7.0290    2.7360   19.8360 C.2   217  SER217      0.2643
    109  O          7.3750    3.8780   20.0970 O.2   217  SER217     -0.2714
    110  CB         6.4000    1.6820   17.5740 C.3   217  SER217      0.2130
    111  OG         5.6760    2.8670   17.2210 O.3   217  SER217     -0.2179
    112  N          6.1970    2.0530   20.5780 N.am  218  TRP218     -0.1959
    113  CA         5.6280    2.6650   21.8130 C.3   218  TRP218      0.1771
    114  C          5.2740    1.6180   22.8320 C.2   218  TRP218      0.2620
    115  O          5.4970    0.4370   22.6600 O.2   218  TRP218     -0.2715
    116  CB         4.3100    3.5270   21.4760 C.3   218  TRP218      0.0590
    117  CG         3.1820    2.7860   20.7060 C.ar  218  TRP218      0.0006
    118  CD1        3.2090    2.4540   19.3850 C.ar  218  TRP218      0.0946
    119  CD2        2.0070    2.3390   21.2460 C.ar  218  TRP218      0.0152
    120  NE1        2.0560    1.8280   19.2180 N.ar  218  TRP218     -0.2442
    121  CE2        1.2630    1.7020   20.2630 C.ar  218  TRP218      0.0810
    122  CE3        1.4780    2.4160   22.5490 C.ar  218  TRP218      0.0012
    123  CZ2        0.0180    1.1490   20.5590 C.ar  218  TRP218      0.0191
    124  CZ3        0.2290    1.8600   22.8510 C.ar  218  TRP218      0.0001
    125  CH2       -0.4990    1.2260   21.8470 C.ar  218  TRP218      0.0015
    126  N          4.7260    2.0700   23.9010 N.am  219  GLY219     -0.1954
    127  CA         4.3180    1.1240   24.9720 C.3   219  GLY219      0.1869
    128  C          3.9870    1.9630   26.1650 C.2   219  GLY219      0.2309
    129  O          4.4530    3.0920   26.2110 O.2   219  GLY219     -0.2863
    130  N          4.6240    2.4550   29.7910 N.3   221  GLY221     -0.1210
    131  CA         5.5690    2.0320   30.8380 C.3   221  GLY221      0.1956
    132  C          6.5290    1.0710   30.1670 C.2   221  GLY221      0.2612
    133  O          6.5830    0.9620   28.9370 O.2   221  GLY221     -0.2717
    134  N          7.2640    0.4170   31.0140 N.am  222  CYS222     -0.1970
    135  CA         8.2590   -0.5690   30.5630 C.3   222  CYS222      0.1712
    136  C          8.0550   -1.7510   31.4690 C.2   222  CYS222      0.2296
    137  O          8.0380   -1.5920   32.6740 O.2   222  CYS222     -0.2864
    138  CB         9.6030    0.0950   30.6980 C.3   222  CYS222      0.0983
    139  SG         9.7140    1.5550   29.6450 S.3   222  CYS222     -0.0798
    140  N          1.9900   -4.8210   26.8280 N.3   228  PRO228     -0.2102
    141  CA         3.0400   -5.2770   25.8630 C.3   228  PRO228      0.1504
    142  C          3.7730   -4.1180   25.1810 C.2   228  PRO228      0.2576
    143  O          3.4270   -2.9610   25.3110 O.2   228  PRO228     -0.2718
    144  CB         2.2600   -6.1910   24.8700 C.3   228  PRO228      0.0282
    145  CG         1.0890   -6.6960   25.7370 C.3   228  PRO228      0.0208
    146  CD         0.6710   -5.4320   26.5090 C.3   228  PRO228      0.0893
    147  N          4.7770   -4.4420   24.4390 N.am  229  GLY229     -0.1943
    148  CA         5.4970   -3.3450   23.7660 C.3   229  GLY229      0.2014
    149  C          4.8590   -3.4210   22.4120 C.2   229  GLY229      0.2638
    150  O          4.5090   -4.5140   22.0050 O.2   229  GLY229     -0.2714
    151  N          4.7290   -2.3000   21.7580 N.am  230  VAL230     -0.1977
    152  CA         4.1050   -2.3050   20.4210 C.3   230  VAL230      0.1596
    153  C          5.1890   -1.9360   19.3930 C.2   230  VAL230      0.2287
    154  O          5.9780   -1.0160   19.5820 O.2   230  VAL230     -0.2864
    155  CB         2.9280   -1.2930   20.4800 C.3   230  VAL230      0.0276
    156  CG1        2.0350   -1.4940   19.2550 C.3   230  VAL230      0.0022
    157  CG2        2.0740   -1.5830   21.7530 C.3   230  VAL230      0.0022
@<TRIPOS>BOND
     1    14    15    1
     2    26    27    2
     3    26    25    1
     4    15    16    1
     5    15    18    1
     6    32    33    2
     7    32    31    1
     8    30    31    1
     9    40    41    2
    10    40    39    1
    11    24    16   am
    12    24    25    1
    13    28    25    1
    14    28    29    1
    15    16    17    2
    16    31    34    1
    17    29    13    1
    18    18    19    1
    19    42    39    1
    20    42    43    1
    21    39    38    1
    22    11    10    2
    23     6     5    1
    24   111   110    1
    25    99   100    1
    26    12    13    1
    27    12     9    1
    28    10     9    1
    29    20    19   ar
    30    20    22   ar
    31   110   107    1
    32   102   101    2
    33    19    21   ar
    34     5     7    1
    35     5     2    1
    36    34    35    1
    37    43    44   ar
    38    43    45   ar
    39    37    35   ar
    40    44    46   ar
    41     9     8    1
    42     8     3   am
    43   101   100    1
    44   101   106   am
    45    95    96    2
    46    95    94    1
    47    35    36   ar
    48   100   103    1
    49   107   106    1
    50   107   108    1
    51    22    23   ar
    52    21    23   ar
    53    45    47   ar
    54     2     3    1
    55     2     1    1
    56     3     4    2
    57   120   118   ar
    58   120   121   ar
    59    46    47   ar
    60   156   155    1
    61   118   117   ar
    62   153   154    2
    63   153   152    1
    64   103   105    1
    65   103   104    1
    66    94    97    1
    67    94    93    1
    68    97    98    1
    69   108   109    2
    70   108   112   am
    71   121   123   ar
    72   121   119   ar
    73   152   155    1
    74   152   151    1
    75   155   157    1
    76   123   125   ar
    77   112   113    1
    78   117   119   ar
    79   117   116    1
    80   119   122   ar
    81   116   113    1
    82   151   149   am
    83   113   114    1
    84   125   124   ar
    85   150   149    2
    86    92    91    2
    87   149   148    1
    88   122   124   ar
    89   115   114    2
    90   114   126   am
    91    91    90    1
    92   148   147    1
    93    73    72    1
    94    72    69    1
    95   126   127    1
    96    90    89    1
    97   147   142   am
    98    89    82   am
    99   144   145    1
   100   144   141    1
   101   127   128    1
   102    77    76    2
   103   142   143    2
   104   142   141    1
   105    59    58    1
   106    57    58   ar
   107    57    55   ar
   108    69    68    1
   109    69    70    1
   110   145   146    1
   111    58    56   ar
   112    82    81    1
   113    82    83    2
   114    55    53   ar
   115   141   140    1
   116    68    62   am
   117    74    70   am
   118    74    75    1
   119    76    80   am
   120    76    75    1
   121    81    80    1
   122    81    84    1
   123    70    71    2
   124    66    65   ar
   125   128   129    2
   126   146   140    1
   127    75    78    1
   128    62    63    2
   129    62    61    1
   130    56    54   ar
   131    53    54   ar
   132    53    52    1
   133    84    85    1
   134    65    67   ar
   135    65    64    1
   136    61    64    1
   137    61    60    1
   138    52    49    1
   139    85    86    1
   140    78    79    1
   141   133   132    2
   142    49    50    1
   143    49    48    1
   144    86    87    2
   145    86    88   am
   146    50    51    2
   147    79   139    1
   148   139   138    1
   149   130   131    1
   150   132   131    1
   151   132   134   am
   152   135   138    1
   153   135   134    1
   154   135   136    1
   155   136   137    2
