@<TRIPOS>MOLECULE
tmp/1gjdB01.pdb
 171 172 0 0 0
SMALL
GASTEIGER

@<TRIPOS>ATOM
      1  N         19.8650    9.1360   19.9630 N.3    30  VAL30      -0.1231
      2  CA        18.4520    9.4250   19.6410 C.3    30  VAL30       0.1692
      3  C         17.6800    8.0880   19.6370 C.2    30  VAL30       0.2592
      4  O         16.8650    7.8680   20.5160 O.2    30  VAL30      -0.2718
      5  CB        18.4460   10.1540   18.2440 C.3    30  VAL30       0.0266
      6  CG1       17.0070   10.4960   17.7920 C.3    30  VAL30       0.0020
      7  CG2       19.2970   11.4530   18.3160 C.3    30  VAL30       0.0020
      8  N         17.9870    7.2680   18.6580 N.am   31  CYS31      -0.1970
      9  CA        17.3390    5.9450   18.4880 C.3    31  CYS31       0.1712
     10  C         18.2380    4.9470   17.8060 C.2    31  CYS31       0.2296
     11  O         19.3440    5.2750   17.4130 O.2    31  CYS31      -0.2864
     12  CB        16.0950    6.1110   17.6380 C.3    31  CYS31       0.0983
     13  SG        14.6990    6.9140   18.4180 S.3    31  CYS31      -0.0798
     14  N          8.9290    8.6440   14.6640 N.3    46  HIS46      -0.1226
     15  CA         8.8530    9.4240   15.9400 C.3    46  HIS46       0.1752
     16  C         10.2000    9.8010   16.4740 C.2    46  HIS46       0.2596
     17  O         10.2830   10.6860   17.2980 O.2    46  HIS46      -0.2718
     18  CB         8.0630    8.6320   17.0610 C.3    46  HIS46       0.0759
     19  CG         8.8010    7.6880   18.0240 C.ar   46  HIS46       0.0818
     20  ND1        8.6850    6.3810   18.0550 N.ar   46  HIS46      -0.2268
     21  CD2        9.6910    8.0160   19.0580 C.ar   46  HIS46       0.1154
     22  CE1        9.4280    5.9070   18.9940 C.ar   46  HIS46       0.1986
     23  NE2       10.0400    6.8680   19.6140 N.ar   46  HIS46      -0.2212
     24  N         11.2170    9.1440   16.0090 N.am   47  CYS47      -0.1970
     25  CA        12.5840    9.4740   16.4960 C.3    47  CYS47       0.1712
     26  C         13.0680   10.8190   15.9010 C.2    47  CYS47       0.2296
     27  O         13.8540   11.5330   16.4990 O.2    47  CYS47      -0.2864
     28  CB        13.5370    8.3210   16.0790 C.3    47  CYS47       0.0983
     29  SG        13.3650    6.7340   16.9200 S.3    47  CYS47      -0.0798
     30  N         21.4860    6.2070   29.6530 N.3   150  TYR150     -0.1241
     31  CA        21.3890    4.9830   28.8150 C.3   150  TYR150      0.1605
     32  C         22.6360    4.1760   29.1230 C.2   150  TYR150      0.2264
     33  O         23.6440    4.7700   29.4670 O.2   150  TYR150     -0.2867
     34  CB        21.4160    5.3310   27.3370 C.3   150  TYR150      0.0534
     35  CG        20.1630    6.0300   26.7920 C.ar  150  TYR150     -0.0201
     36  CD1       18.9280    5.7020   27.2690 C.ar  150  TYR150     -0.0009
     37  CD2       20.2550    6.9740   25.7800 C.ar  150  TYR150     -0.0009
     38  CE1       17.7980    6.2840   26.7660 C.ar  150  TYR150      0.0417
     39  CE2       19.1100    7.5500   25.2810 C.ar  150  TYR150      0.0417
     40  CZ        17.8850    7.1980   25.7820 C.ar  150  TYR150      0.1957
     41  OH        16.7090    7.7310   25.3260 O.3   150  TYR150     -0.2866
     42  N         12.0540   -6.3950   28.5710 N.3   192  ASP192     -0.1225
     43  CA        11.2540   -5.6420   27.5430 C.3   192  ASP192      0.1805
     44  C         12.0870   -4.4800   26.9680 C.2   192  ASP192      0.2598
     45  O         13.1850   -4.2340   27.4470 O.2   192  ASP192     -0.2718
     46  CB         9.9810   -5.0730   28.2540 C.3   192  ASP192      0.1424
     47  CG         8.9240   -4.3650   27.3670 C.2   192  ASP192      0.3668
     48  OD1        8.9330   -4.5530   26.1770 O.co2 192  ASP192     -0.2456
     49  OD2        8.1130   -3.6460   27.9030 O.co2 192  ASP192     -0.2456
     50  N         11.5690   -3.8050   25.9730 N.am  193  SER193     -0.1938
     51  CA        12.2960   -2.6500   25.3890 C.3   193  SER193      0.2055
     52  C         11.8280   -1.4900   26.3150 C.2   193  SER193      0.2643
     53  O         10.8700   -1.6430   27.0490 O.2   193  SER193     -0.2714
     54  CB        11.8600   -2.4380   23.8990 C.3   193  SER193      0.2130
     55  OG        10.4770   -2.7410   23.7310 O.3   193  SER193     -0.2179
     56  N         12.4990   -0.3910   26.2630 N.am  194  CYS194     -0.1953
     57  CA        12.1570    0.7710   27.1010 C.3   194  CYS194      0.1843
     58  C         12.5880    2.0010   26.2950 C.2   194  CYS194      0.2625
     59  O         12.9740    1.8940   25.1400 O.2   194  CYS194     -0.2714
     60  CB        12.9150    0.6520   28.4420 C.3   194  CYS194      0.0997
     61  SG        12.2800    1.6890   29.7910 S.3   194  CYS194     -0.0797
     62  N         12.5100    3.1250   26.9310 N.am  195  GLN195     -0.1963
     63  CA        12.8800    4.4230   26.3320 C.3   195  GLN195      0.1733
     64  C         14.2840    4.3470   25.7690 C.2   195  GLN195      0.2616
     65  O         15.1800    3.8450   26.4280 O.2   195  GLN195     -0.2715
     66  CB        12.7400    5.4750   27.4520 C.3   195  GLN195      0.0408
     67  CG        12.8680    6.9170   26.9070 C.3   195  GLN195      0.0908
     68  CD        12.2460    7.8800   27.9460 C.2   195  GLN195      0.2608
     69  OE1       11.4810    7.4890   28.8140 O.2   195  GLN195     -0.2717
     70  NE2       12.5430    9.1350   27.8990 N.am  195  GLN195     -0.0878
     71  N         14.4540    4.8400   24.5760 N.am  196  GLY196     -0.1955
     72  CA        15.8130    4.7990   23.9670 C.3   196  GLY196      0.1869
     73  C         15.9250    3.6110   23.0250 C.2   196  GLY196      0.2309
     74  O         16.7950    3.5400   22.1830 O.2   196  GLY196     -0.2863
     75  N         13.5820    2.7720   20.9030 N.3   198  SER198     -0.1217
     76  CA        12.7880    3.1170   19.6920 C.3   198  SER198      0.1889
     77  C         13.6330    3.0330   18.4080 C.2   198  SER198      0.2288
     78  O         14.8100    3.3190   18.4350 O.2   198  SER198     -0.2866
     79  CB        12.2780    4.5490   19.7570 C.3   198  SER198      0.2089
     80  OG        11.2000    4.6820   20.6740 O.3   198  SER198     -0.2183
     81  N         10.9360   -1.1530   17.0760 N.3   216  VAL216     -0.1231
     82  CA        10.5160   -0.7480   18.4450 C.3   216  VAL216      0.1692
     83  C          9.7320    0.5720   18.2710 C.2   216  VAL216      0.2593
     84  O         10.3110    1.5380   17.7840 O.2   216  VAL216     -0.2718
     85  CB        11.8100   -0.5790   19.3020 C.3   216  VAL216      0.0266
     86  CG1       11.4240   -0.2020   20.7220 C.3   216  VAL216      0.0020
     87  CG2       12.6050   -1.8890   19.4290 C.3   216  VAL216      0.0020
     88  N          8.4810    0.5810   18.6640 N.am  217  SER217     -0.1938
     89  CA         7.6450    1.8160   18.5220 C.3   217  SER217      0.2055
     90  C          7.1460    2.4480   19.8500 C.2   217  SER217      0.2643
     91  O          7.5390    3.5710   20.1450 O.2   217  SER217     -0.2714
     92  CB         6.4650    1.4260   17.6020 C.3   217  SER217      0.2130
     93  OG         5.6850    2.5820   17.2880 O.3   217  SER217     -0.2179
     94  N          6.3140    1.7850   20.6180 N.am  218  TRP218     -0.1959
     95  CA         5.8330    2.4050   21.8910 C.3   218  TRP218      0.1771
     96  C          5.4090    1.3720   22.9070 C.2   218  TRP218      0.2620
     97  O          5.3500    0.1850   22.6440 O.2   218  TRP218     -0.2715
     98  CB         4.6120    3.3250   21.6240 C.3   218  TRP218      0.0590
     99  CG         3.4430    2.6430   20.8580 C.ar  218  TRP218      0.0006
    100  CD1        3.3840    2.4480   19.5120 C.ar  218  TRP218      0.0946
    101  CD2        2.3200    2.1390   21.4040 C.ar  218  TRP218      0.0152
    102  NE1        2.2290    1.8400   19.3280 N.ar  218  TRP218     -0.2442
    103  CE2        1.5040    1.6070   20.4100 C.ar  218  TRP218      0.0810
    104  CE3        1.9150    2.0950   22.7310 C.ar  218  TRP218      0.0012
    105  CZ2        0.2900    1.0320   20.7400 C.ar  218  TRP218      0.0191
    106  CZ3        0.7000    1.5180   23.0620 C.ar  218  TRP218      0.0001
    107  CH2       -0.1110    0.9930   22.0750 C.ar  218  TRP218      0.0015
    108  N          5.1110    1.8270   24.0820 N.am  219  GLY219     -0.1940
    109  CA         4.6740    0.8760   25.1240 C.3   219  GLY219      0.2014
    110  C          4.3680    1.6730   26.3760 C.2   219  GLY219      0.2639
    111  O          4.8830    2.7660   26.5100 O.2   219  GLY219     -0.2714
    112  N          3.5690    1.1330   27.2550 N.am  220  ARG220     -0.1963
    113  CA         3.2310    1.8650   28.5040 C.3   220  ARG220      0.1729
    114  C          4.2210    1.3050   29.5070 C.2   220  ARG220      0.2617
    115  O          4.2580    0.1190   29.7880 O.2   220  ARG220     -0.2715
    116  CB         1.7580    1.5680   28.9280 C.3   220  ARG220      0.0348
    117  CG         1.4820    2.4180   30.1980 C.3   220  ARG220      0.0492
    118  CD         0.0370    2.2690   30.7140 C.3   220  ARG220      0.2205
    119  NE        -0.0010    2.9440   32.0530 N.pl3 220  ARG220     -0.0865
    120  CZ        -0.0750    2.2860   33.1870 C.cat 220  ARG220      0.5346
    121  NH1       -0.1240    0.9800   33.2210 N.pl3 220  ARG220      0.1354
    122  NH2       -0.0940    2.9840   34.2860 N.pl3 220  ARG220      0.1354
    123  N          5.0170    2.2000   30.0240 N.am  221  GLY221     -0.1940
    124  CA         6.0430    1.8160   31.0110 C.3   221  GLY221      0.2014
    125  C          6.9920    0.9010   30.2650 C.2   221  GLY221      0.2639
    126  O          7.0240    0.9050   29.0480 O.2   221  GLY221     -0.2714
    127  N          7.7270    0.1620   31.0230 N.am  222  CYS222     -0.1967
    128  CA         8.7090   -0.7970   30.4930 C.3   222  CYS222      0.1712
    129  C          8.5880   -2.0260   31.3740 C.2   222  CYS222      0.2296
    130  O          8.6620   -1.9040   32.5860 O.2   222  CYS222     -0.2864
    131  CB        10.0920   -0.1720   30.5880 C.3   222  CYS222      0.0983
    132  SG        10.2970    1.3600   29.6530 S.3   222  CYS222     -0.0798
    133  N          1.3180   -4.9660   29.5920 N.3   227  LYS227     -0.1231
    134  CA         1.6720   -3.7740   28.7710 C.3   227  LYS227      0.1678
    135  C          2.8730   -4.2100   27.9160 C.2   227  LYS227      0.2434
    136  O          4.0240   -3.9230   28.2230 O.2   227  LYS227     -0.2733
    137  CB         2.0350   -2.6030   29.7060 C.3   227  LYS227      0.0284
    138  CG         0.8500   -2.2400   30.6530 C.3   227  LYS227      0.0035
    139  CD        -0.4040   -1.7580   29.8510 C.3   227  LYS227      0.0206
    140  CE        -1.6490   -1.8860   30.7650 C.3   227  LYS227      0.1093
    141  NZ        -2.8130   -1.2250   30.1260 N.3   227  LYS227     -0.1314
    142  N          2.5720   -4.9140   26.8500 N.am  228  PRO228     -0.2718
    143  CA         3.5930   -5.3860   25.8620 C.3   228  PRO228      0.1535
    144  C          4.2930   -4.2190   25.1700 C.2   228  PRO228      0.2599
    145  O          3.9680   -3.0630   25.3450 O.2   228  PRO228     -0.2715
    146  CB         2.8100   -6.2420   24.8660 C.3   228  PRO228      0.0310
    147  CG         1.4870   -6.6000   25.6200 C.3   228  PRO228      0.0237
    148  CD         1.1910   -5.3610   26.4480 C.3   228  PRO228      0.0939
    149  N          5.2470   -4.5500   24.3620 N.am  229  GLY229     -0.1941
    150  CA         5.9740   -3.4930   23.6300 C.3   229  GLY229      0.2014
    151  C          5.2570   -3.6050   22.3150 C.2   229  GLY229      0.2639
    152  O          4.8960   -4.7120   21.9460 O.2   229  GLY229     -0.2714
    153  N          5.0570   -2.5080   21.6470 N.am  230  VAL230     -0.1963
    154  CA         4.3520   -2.5400   20.3350 C.3   230  VAL230      0.1727
    155  C          5.4250   -2.1520   19.3070 C.2   230  VAL230      0.2616
    156  O          6.2170   -1.2480   19.5270 O.2   230  VAL230     -0.2715
    157  CB         3.1940   -1.5640   20.4470 C.3   230  VAL230      0.0290
    158  CG1        2.2900   -1.7270   19.2200 C.3   230  VAL230      0.0023
    159  CG2        2.4190   -1.9610   21.7460 C.3   230  VAL230      0.0023
    160  N          5.3970   -2.8500   18.2140 N.am  231  TYR231     -0.1974
    161  CA         6.3620   -2.6460   17.1280 C.3   231  TYR231      0.1639
    162  C          5.6850   -2.3540   15.8220 C.2   231  TYR231      0.2290
    163  O          4.5800   -2.8180   15.6190 O.2   231  TYR231     -0.2864
    164  CB         7.1890   -3.9380   17.0410 C.3   231  TYR231      0.0560
    165  CG         7.8740   -4.2560   18.3710 C.ar  231  TYR231     -0.0198
    166  CD1        7.1830   -4.7660   19.4470 C.ar  231  TYR231     -0.0009
    167  CD2        9.2070   -4.0040   18.5120 C.ar  231  TYR231     -0.0009
    168  CE1        7.8210   -5.0100   20.6440 C.ar  231  TYR231      0.0417
    169  CE2        9.8330   -4.2520   19.7010 C.ar  231  TYR231      0.0417
    170  CZ         9.1570   -4.7470   20.7740 C.ar  231  TYR231      0.1957
    171  OH         9.8440   -4.9200   21.9520 O.3   231  TYR231     -0.2866
@<TRIPOS>BOND
     1    14    15    1
     2   163   162    2
     3   162   161    1
     4    26    25    1
     5    26    27    2
     6    15    16    1
     7    15    18    1
     8    24    16   am
     9    24    25    1
    10    28    25    1
    11    28    29    1
    12    16    17    2
    13    29    13    1
    14   164   161    1
    15   164   165    1
    16    18    19    1
    17    81    82    1
    18   161   160    1
    19    93    92    1
    20    11    10    2
    21    92    89    1
    22    12    13    1
    23    12     9    1
    24    84    83    2
    25     6     5    1
    26    10     9    1
    27    19    20   ar
    28    19    21   ar
    29    20    22   ar
    30   160   155   am
    31     5     7    1
    32     5     2    1
    33    83    82    1
    34    83    88   am
    35   165   167   ar
    36   165   166   ar
    37    77    78    2
    38    77    76    1
    39    82    85    1
    40     9     8    1
    41   167   169   ar
    42    89    88    1
    43    89    90    1
    44     8     3   am
    45    22    23   ar
    46    21    23   ar
    47   158   157    1
    48    85    87    1
    49    85    86    1
    50   155   156    2
    51   155   154    1
    52   102   100   ar
    53   102   103   ar
    54   166   168   ar
    55   100    99   ar
    56     3     2    1
    57     3     4    2
    58     2     1    1
    59    76    79    1
    60    76    75    1
    61   169   170   ar
    62    79    80    1
    63    90    91    2
    64    90    94   am
    65   154   157    1
    66   154   153    1
    67   103   105   ar
    68   103   101   ar
    69   157   159    1
    70    94    95    1
    71   168   170   ar
    72   105   107   ar
    73   170   171    1
    74    99   101   ar
    75    99    98    1
    76   101   104   ar
    77    98    95    1
    78   153   151   am
    79    95    96    1
    80   152   151    2
    81   107   106   ar
    82    74    73    2
    83   151   150    1
    84    97    96    2
    85   104   106   ar
    86    96   108   am
    87    73    72    1
    88   150   149    1
    89    55    54    1
    90    54    51    1
    91    72    71    1
    92   108   109    1
    93   149   144   am
    94    71    64   am
    95   146   147    1
    96   146   143    1
    97   109   110    1
    98    59    58    2
    99   144   145    2
   100   144   143    1
   101    39    37   ar
   102    39    40   ar
   103    41    40    1
   104    51    50    1
   105    51    52    1
   106   147   148    1
   107    64    63    1
   108    64    65    2
   109    37    35   ar
   110    40    38   ar
   111   143   142    1
   112    50    44   am
   113    48    47   ar
   114    56    52   am
   115    56    57    1
   116    58    62   am
   117    58    57    1
   118    52    53    2
   119    63    62    1
   120    63    66    1
   121   110   111    2
   122   110   112   am
   123   148   142    1
   124    38    36   ar
   125    35    36   ar
   126    35    34    1
   127   142   135   am
   128    67    66    1
   129    67    68    1
   130    44    45    2
   131    44    43    1
   132    57    60    1
   133   112   113    1
   134    34    31    1
   135    47    49   ar
   136    47    46    1
   137    43    46    1
   138    43    42    1
   139    70    68   am
   140   135   136    2
   141   135   134    1
   142    68    69    2
   143    60    61    1
   144   113   116    1
   145   113   114    1
   146   134   133    1
   147   134   137    1
   148    31    32    1
   149    31    30    1
   150   116   117    1
   151   126   125    2
   152    32    33    2
   153   114   115    2
   154   114   123   am
   155   132    61    1
   156   132   131    1
   157   137   138    1
   158   139   138    1
   159   139   140    1
   160   123   124    1
   161   141   140    1
   162   117   118    1
   163   125   124    1
   164   125   127   am
   165   128   131    1
   166   128   127    1
   167   128   129    1
   168   118   119    1
   169   129   130    2
   170   119   120    2
   171   120   121    1
   172   120   122    1
