@<TRIPOS>MOLECULE
tmp/1gjmA01.pdb
 123 114 0 0 0
SMALL
GASTEIGER

@<TRIPOS>ATOM
      1  N         32.2260   27.8920   99.7350 N.3    74  SER74      -0.1217
      2  CA        32.8090   26.5500   99.7110 C.3    74  SER74       0.1889
      3  C         31.9020   25.5100  100.3880 C.2    74  SER74       0.2288
      4  O         32.3110   24.3740  100.6010 O.2    74  SER74      -0.2866
      5  CB        34.1860   26.5320  100.3820 C.3    74  SER74       0.2089
      6  OG        35.1290   27.2740   99.6410 O.3    74  SER74      -0.2183
      7  N         30.0110   23.5110   99.5040 N.3    76  CYS76      -0.1235
      8  CA        29.6880   22.8120   98.2690 C.3    76  CYS76       0.1677
      9  C         28.8220   21.5730   98.2660 C.2    76  CYS76       0.2270
     10  O         28.9450   20.7030   99.1360 O.2    76  CYS76      -0.2867
     11  CB        30.9900   22.4150   97.5570 C.3    76  CYS76       0.0956
     12  SG        32.0130   23.7800   96.9450 S.3    76  CYS76      -0.0801
     13  N         29.1890   18.2370  100.7150 N.3    87  TYR87      -0.1241
     14  CA        30.5220   18.1470  101.2890 C.3    87  TYR87       0.1605
     15  C         30.5140   18.7630  102.6790 C.2    87  TYR87       0.2264
     16  O         29.8700   19.7830  102.8990 O.2    87  TYR87      -0.2867
     17  CB        31.5370   18.9180  100.4400 C.3    87  TYR87       0.0534
     18  CG        31.9560   18.2480   99.1540 C.ar   87  TYR87      -0.0201
     19  CD1       32.7870   17.1240   99.1670 C.ar   87  TYR87      -0.0009
     20  CD2       31.5670   18.7690   97.9190 C.ar   87  TYR87      -0.0009
     21  CE1       33.2160   16.5310   97.9770 C.ar   87  TYR87       0.0417
     22  CE2       31.9870   18.1860   96.7200 C.ar   87  TYR87       0.0417
     23  CZ        32.8170   17.0700   96.7580 C.ar   87  TYR87       0.1957
     24  OH        33.2480   16.4980   95.5870 O.3    87  TYR87      -0.2866
     25  N         33.7060   18.4870  104.5540 N.3    89  PHE89      -0.1241
     26  CA        35.1130   18.3640  104.9000 C.3    89  PHE89       0.1605
     27  C         35.5730   19.6170  105.6270 C.2    89  PHE89       0.2264
     28  O         35.0010   20.7000  105.4540 O.2    89  PHE89      -0.2867
     29  CB        35.9530   18.1910  103.6400 C.3    89  PHE89       0.0534
     30  CG        35.8720   16.8240  103.0390 C.ar   89  PHE89      -0.0203
     31  CD1       36.1030   15.6940  103.8180 C.ar   89  PHE89      -0.0042
     32  CD2       35.6130   16.6630  101.6820 C.ar   89  PHE89      -0.0042
     33  CE1       36.0820   14.4240  103.2570 C.ar   89  PHE89      -0.0003
     34  CE2       35.5910   15.3940  101.1100 C.ar   89  PHE89      -0.0003
     35  CZ        35.8280   14.2720  101.8990 C.ar   89  PHE89      -0.0000
     36  N         38.0240   22.5690  104.1740 N.3    92  THR92      -0.1203
     37  CA        37.6330   22.7640  102.7880 C.3    92  THR92       0.1994
     38  C         36.1710   23.0830  102.4850 C.2    92  THR92       0.2618
     39  O         35.8920   23.8110  101.5400 O.2    92  THR92      -0.2717
     40  CB        38.1330   21.5920  101.9560 C.3    92  THR92       0.1784
     41  OG1       39.4400   21.2400  102.4320 O.3    92  THR92      -0.2211
     42  CG2       38.2330   21.9650  100.4830 C.3    92  THR92       0.0376
     43  N         35.2410   22.5780  103.2870 N.am   93  SER93      -0.1951
     44  CA        33.8370   22.8750  103.0460 C.3    93  SER93       0.1924
     45  C         33.3400   24.0570  103.8940 C.2    93  SER93       0.2314
     46  O         32.1430   24.2070  104.1290 O.2    93  SER93      -0.2863
     47  CB        32.9810   21.6270  103.2730 C.3    93  SER93       0.2116
     48  OG        33.4470   20.5560  102.4570 O.3    93  SER93      -0.2180
     49  N         36.0410    9.4860   95.4950 N.3   175  MET175     -0.1230
     50  CA        35.8220   10.8980   95.7960 C.3   175  MET175      0.1702
     51  C         36.3580   11.8120   94.6870 C.2   175  MET175      0.2593
     52  O         36.1250   13.0210   94.7160 O.2   175  MET175     -0.2718
     53  CB        36.4890   11.2930   97.1200 C.3   175  MET175      0.0401
     54  CG        35.8620   10.7030   98.3890 C.3   175  MET175      0.0596
     55  SD        34.0770   10.9930   98.5440 S.3   175  MET175     -0.1393
     56  CE        33.9990   12.7060   98.9860 C.3   175  MET175      0.0692
     57  N         37.0700   11.2480   93.7130 N.am  176  THR176     -0.1953
     58  CA        37.6570   12.0570   92.6410 C.3   176  THR176      0.1897
     59  C         37.2700   11.6440   91.2210 C.2   176  THR176      0.2313
     60  O         36.9600   12.4970   90.3840 O.2   176  THR176     -0.2863
     61  CB        39.2040   12.0800   92.7560 C.3   176  THR176      0.1794
     62  OG1       39.7190   10.7380   92.7280 O.3   176  THR176     -0.2208
     63  CG2       39.6210   12.7520   94.0550 C.3   176  THR176      0.0378
     64  N         39.3370   14.7310  104.9100 N.3   235  LEU235     -0.1245
     65  CA        39.8220   15.5800  103.8360 C.3   235  LEU235      0.1561
     66  C         41.3030   15.3180  103.5880 C.2   235  LEU235      0.2260
     67  O         41.7340   15.2240  102.4420 O.2   235  LEU235     -0.2867
     68  CB        39.6280   17.0630  104.1670 C.3   235  LEU235      0.0270
     69  CG        40.3490   17.8690  103.0780 C.3   235  LEU235      0.0019
     70  CD1       39.3730   18.2070  101.9680 C.3   235  LEU235      0.0001
     71  CD2       41.0440   19.0820  103.6440 C.3   235  LEU235      0.0001
     72  N         42.0270   12.2240  101.4760 N.3   238  VAL238     -0.1245
     73  CA        41.7720   12.4070  100.0530 C.3   238  VAL238      0.1561
     74  C         42.9680   13.1080   99.4200 C.2   238  VAL238      0.2260
     75  O         43.5380   12.6250   98.4420 O.2   238  VAL238     -0.2867
     76  CB        40.4830   13.2220   99.7840 C.3   238  VAL238      0.0252
     77  CG1       40.3570   13.5140   98.2990 C.3   238  VAL238      0.0019
     78  CG2       39.2510   12.4490  100.2530 C.3   238  VAL238      0.0019
     79  N         43.4870   19.4880   89.2270 N.3   286  VAL286     -0.1245
     80  CA        42.3320   19.6030   90.1050 C.3   286  VAL286      0.1561
     81  C         41.2990   20.5670   89.5540 C.2   286  VAL286      0.2260
     82  O         41.6340   21.5420   88.8670 O.2   286  VAL286     -0.2867
     83  CB        42.7300   20.0400   91.5410 C.3   286  VAL286      0.0252
     84  CG1       41.4940   20.1070   92.4470 C.3   286  VAL286      0.0019
     85  CG2       43.7550   19.0690   92.1260 C.3   286  VAL286      0.0019
     86  N         37.5560   21.8070   91.2550 N.3   288  ASP288     -0.1225
     87  CA        36.3940   21.7400   92.1200 C.3   288  ASP288      0.1805
     88  C         35.6670   23.0910   91.9880 C.2   288  ASP288      0.2598
     89  O         35.9840   23.8620   91.0760 O.2   288  ASP288     -0.2718
     90  CB        36.7340   21.2690   93.5590 C.3   288  ASP288      0.1424
     91  CG        37.3090   22.3460   94.4540 C.2   288  ASP288      0.3668
     92  OD1       37.8890   23.3390   93.9620 O.co2 288  ASP288     -0.2456
     93  OD2       37.1840   22.1660   95.6870 O.co2 288  ASP288     -0.2456
     94  N         34.6790   23.3770   92.8260 N.am  289  GLY289     -0.1942
     95  CA        33.9800   24.6340   92.6590 C.3   289  GLY289      0.2014
     96  C         33.4340   25.2650   93.9090 C.2   289  GLY289      0.2638
     97  O         33.8940   24.9860   95.0090 O.2   289  GLY289     -0.2714
     98  N         32.4620   26.1450   93.7110 N.am  290  ARG290     -0.1977
     99  CA        31.8100   26.8730   94.7900 C.3   290  ARG290      0.1597
    100  C         30.3140   26.9240   94.4910 C.2   290  ARG290      0.2287
    101  O         29.8530   26.4400   93.4500 O.2   290  ARG290     -0.2864
    102  CB        32.3440   28.3130   94.8420 C.3   290  ARG290      0.0334
    103  CG        33.8370   28.4670   95.1390 C.3   290  ARG290      0.0492
    104  CD        34.1570   28.0010   96.5360 C.3   290  ARG290      0.2205
    105  NE        35.5480   28.2260   96.9260 N.pl3 290  ARG290     -0.0865
    106  CZ        36.5050   27.3030   96.8830 C.cat 290  ARG290      0.5346
    107  NH1       36.2380   26.0760   96.4440 N.pl3 290  ARG290      0.1354
    108  NH2       37.7140   27.5800   97.3640 N.pl3 290  ARG290      0.1354
    109  N         37.2700   15.3030   89.4010 N.3   386  ILE386     -0.1231
    110  CA        37.6240   16.3930   90.3160 C.3   386  ILE386      0.1692
    111  C         39.1600   16.4740   90.3860 C.2   386  ILE386      0.2591
    112  O         39.7390   17.5340   90.6190 O.2   386  ILE386     -0.2718
    113  CB        37.0190   16.1640   91.7220 C.3   386  ILE386      0.0266
    114  CG1       35.4870   16.1550   91.6350 C.3   386  ILE386      0.0019
    115  CG2       37.4970   17.2520   92.6940 C.3   386  ILE386      0.0020
    116  CD1       34.7910   15.6010   92.8790 C.3   386  ILE386      0.0001
    117  N         39.7980   15.3240   90.2260 N.am  387  VAL387     -0.1980
    118  CA        41.2530   15.2200   90.1850 C.3   387  VAL387      0.1595
    119  C         41.4530   14.2600   89.0170 C.2   387  VAL387      0.2287
    120  O         41.0150   13.1100   89.0850 O.2   387  VAL387     -0.2864
    121  CB        41.8660   14.5860   91.4550 C.3   387  VAL387      0.0276
    122  CG1       43.3930   14.4810   91.2890 C.3   387  VAL387      0.0022
    123  CG2       41.5240   15.4130   92.7060 C.3   387  VAL387      0.0022
@<TRIPOS>BOND
     1    82    81    2
     2   119   120    2
     3   119   118    1
     4    79    80    1
     5   109   110    1
     6    81    80    1
     7    80    83    1
     8   118   117    1
     9   118   121    1
    10   117   111   am
    11   110   111    1
    12   110   113    1
    13    60    59    2
    14   111   112    2
    15    89    88    2
    16    59    58    1
    17    86    87    1
    18   122   121    1
    19   121   123    1
    20    83    85    1
    21    83    84    1
    22   114   113    1
    23   114   116    1
    24   113   115    1
    25    88    87    1
    26    88    94   am
    27    87    90    1
    28    58    61    1
    29    58    57    1
    30    95    94    1
    31    95    96    1
    32    62    61    1
    33    61    63    1
    34   101   100    2
    35    90    91    1
    36    98    96   am
    37    98    99    1
    38    57    51   am
    39    96    97    2
    40    92    91   ar
    41    91    93   ar
    42   100    99    1
    43    51    52    2
    44    51    50    1
    45    99   102    1
    46   102   103    1
    47   103   104    1
    48    49    50    1
    49    24    23    1
    50    50    53    1
    51   107   106    1
    52   104   105    1
    53    22    23   ar
    54    22    20   ar
    55    23    21   ar
    56   106   105    2
    57   106   108    1
    58    12    11    1
    59    53    54    1
    60    11     8    1
    61    20    18   ar
    62    21    19   ar
    63     9     8    1
    64     9    10    2
    65     8     7    1
    66    77    76    1
    67    54    55    1
    68    75    74    2
    69    55    56    1
    70    18    19   ar
    71    18    17    1
    72    74    73    1
    73     6     5    1
    74     2     1    1
    75     2     5    1
    76     2     3    1
    77    76    73    1
    78    76    78    1
    79    73    72    1
    80     3     4    2
    81    17    14    1
    82    42    40    1
    83    13    14    1
    84    34    32   ar
    85    34    35   ar
    86    14    15    1
    87    39    38    2
    88    32    30   ar
    89    35    33   ar
    90    40    41    1
    91    40    37    1
    92    70    69    1
    93    67    66    2
    94    48    47    1
    95    38    37    1
    96    38    43   am
    97    15    16    2
    98    37    36    1
    99    30    29    1
   100    30    31   ar
   101    44    47    1
   102    44    43    1
   103    44    45    1
   104    69    71    1
   105    69    68    1
   106    33    31   ar
   107    66    65    1
   108    29    26    1
   109    65    68    1
   110    65    64    1
   111    45    46    2
   112    25    26    1
   113    26    27    1
   114    28    27    2
