@<TRIPOS>MOLECULE
tmp/1gjpA00.pdb
 115 110 0 0 0
SMALL
GASTEIGER

@<TRIPOS>ATOM
      1  N         16.0840   32.2100   21.7600 N.3    89  PHE89      -0.1241
      2  CA        17.3020   31.6500   22.2920 C.3    89  PHE89       0.1605
      3  C         17.8770   32.6660   23.2940 C.2    89  PHE89       0.2264
      4  O         18.1100   33.8130   22.9270 O.2    89  PHE89      -0.2867
      5  CB        18.3590   31.3230   21.2430 C.3    89  PHE89       0.0534
      6  CG        17.8930   30.3070   20.2060 C.ar   89  PHE89      -0.0203
      7  CD1       17.1590   30.7240   19.1100 C.ar   89  PHE89      -0.0042
      8  CD2       18.1930   28.9610   20.3490 C.ar   89  PHE89      -0.0042
      9  CE1       16.7360   29.8000   18.1640 C.ar   89  PHE89      -0.0003
     10  CE2       17.7730   28.0320   19.4120 C.ar   89  PHE89      -0.0003
     11  CZ        17.0360   28.4620   18.3170 C.ar   89  PHE89      -0.0000
     12  N         13.0300   27.8330   22.2050 N.3   131  ASP131     -0.1239
     13  CA        13.9480   26.6990   22.1830 C.3   131  ASP131      0.1674
     14  C         14.0290   26.1280   23.6000 C.2   131  ASP131      0.2266
     15  O         14.0600   26.8820   24.5760 O.2   131  ASP131     -0.2867
     16  CB        15.3300   27.1020   21.7100 C.3   131  ASP131      0.1410
     17  CG        16.3130   25.9710   21.5300 C.2   131  ASP131      0.3668
     18  OD1       16.0880   25.1370   20.6270 O.co2 131  ASP131     -0.2456
     19  OD2       17.3310   25.8970   22.2570 O.co2 131  ASP131     -0.2456
     20  N         15.2720   20.8840   21.6790 N.3   179  SER179     -0.1217
     21  CA        16.2910   20.6710   20.6660 C.3   179  SER179      0.1889
     22  C         17.4760   19.8240   21.1120 C.2   179  SER179      0.2288
     23  O         18.5090   19.8270   20.4290 O.2   179  SER179     -0.2866
     24  CB        16.8010   22.0430   20.1900 C.3   179  SER179      0.2089
     25  OG        17.5440   22.7200   21.1900 O.3   179  SER179     -0.2183
     26  N         12.2150   19.0500   17.6400 N.3   207  TYR207     -0.1241
     27  CA        13.3490   18.8070   16.7700 C.3   207  TYR207      0.1605
     28  C         13.5370   17.2850   16.7500 C.2   207  TYR207      0.2264
     29  O         14.4020   16.7670   17.4550 O.2   207  TYR207     -0.2867
     30  CB        14.6330   19.4460   17.2360 C.3   207  TYR207      0.0534
     31  CG        14.7690   20.9280   17.3300 C.ar  207  TYR207     -0.0201
     32  CD1       14.0990   21.6800   18.2940 C.ar  207  TYR207     -0.0009
     33  CD2       15.5950   21.6090   16.4460 C.ar  207  TYR207     -0.0009
     34  CE1       14.2540   23.0510   18.3510 C.ar  207  TYR207      0.0417
     35  CE2       15.7600   22.9760   16.4950 C.ar  207  TYR207      0.0417
     36  CZ        15.0820   23.6900   17.4560 C.ar  207  TYR207      0.1957
     37  OH        15.2430   25.0550   17.5090 O.3   207  TYR207     -0.2866
     38  N         17.2110   15.9060   14.0730 N.3   210  LYS210     -0.1245
     39  CA        18.3260   16.8340   14.1790 C.3   210  LYS210      0.1561
     40  C         19.6330   16.0840   13.9830 C.2   210  LYS210      0.2260
     41  O         19.8800   15.1000   14.6880 O.2   210  LYS210     -0.2867
     42  CB        18.3360   17.4910   15.5580 C.3   210  LYS210      0.0271
     43  CG        18.5350   18.9920   15.5590 C.3   210  LYS210      0.0035
     44  CD        18.1360   19.5620   16.9200 C.3   210  LYS210      0.0206
     45  CE        19.3620   20.0150   17.6920 C.3   210  LYS210      0.1093
     46  NZ        19.1130   21.2750   18.4440 N.3   210  LYS210     -0.1314
     47  N         26.6320   24.0950   11.9500 N.3   216  TYR216     -0.1241
     48  CA        26.1070   24.8690   13.0740 C.3   216  TYR216      0.1605
     49  C         27.0640   25.9620   13.5480 C.2   216  TYR216      0.2264
     50  O         26.8130   26.6010   14.5790 O.2   216  TYR216     -0.2867
     51  CB        25.7560   23.9470   14.2440 C.3   216  TYR216      0.0534
     52  CG        24.7690   22.8440   13.9680 C.ar  216  TYR216     -0.0201
     53  CD1       23.4330   23.1210   13.7080 C.ar  216  TYR216     -0.0009
     54  CD2       25.1640   21.5080   13.9660 C.ar  216  TYR216     -0.0009
     55  CE1       22.5270   22.1030   13.4530 C.ar  216  TYR216      0.0417
     56  CE2       24.2590   20.4870   13.7150 C.ar  216  TYR216      0.0417
     57  CZ        22.9400   20.7890   13.4600 C.ar  216  TYR216      0.1957
     58  OH        22.0330   19.7830   13.2080 O.3   216  TYR216     -0.2866
     59  N         25.9670   29.5730   14.8140 N.3   219  PHE219     -0.1241
     60  CA        25.1000   29.4770   15.9860 C.3   219  PHE219      0.1605
     61  C         25.9450   29.4940   17.2600 C.2   219  PHE219      0.2264
     62  O         25.6860   30.2980   18.1550 O.2   219  PHE219     -0.2867
     63  CB        24.2120   28.2300   15.9780 C.3   219  PHE219      0.0534
     64  CG        23.1880   28.2000   17.1100 C.ar  219  PHE219     -0.0203
     65  CD1       21.9270   28.7530   16.9420 C.ar  219  PHE219     -0.0042
     66  CD2       23.4670   27.6170   18.3340 C.ar  219  PHE219     -0.0042
     67  CE1       20.9810   28.7360   17.9520 C.ar  219  PHE219     -0.0003
     68  CE2       22.5390   27.6100   19.3600 C.ar  219  PHE219     -0.0003
     69  CZ        21.2870   28.1690   19.1730 C.ar  219  PHE219     -0.0000
     70  N         16.3030   19.6290   10.8680 N.3   263  LYS263     -0.1245
     71  CA        17.4450   20.5310   10.9880 C.3   263  LYS263      0.1561
     72  C         18.7340   19.7520   10.7950 C.2   263  LYS263      0.2260
     73  O         18.9010   18.6850   11.4030 O.2   263  LYS263     -0.2867
     74  CB        17.3750   21.2360   12.3410 C.3   263  LYS263      0.0271
     75  CG        18.6880   21.7320   12.9290 C.3   263  LYS263      0.0035
     76  CD        18.4280   22.2750   14.3280 C.3   263  LYS263      0.0206
     77  CE        19.6620   22.2530   15.2140 C.3   263  LYS263      0.1093
     78  NZ        20.2700   23.5980   15.2700 N.3   263  LYS263     -0.1314
     79  N         14.3960   24.1310    9.3960 N.3   287  TYR287     -0.1241
     80  CA        15.3180   25.0880   10.0280 C.3   287  TYR287      0.1605
     81  C         16.5390   25.2430    9.1160 C.2   287  TYR287      0.2264
     82  O         17.3880   24.3650    8.9950 O.2   287  TYR287     -0.2867
     83  CB        15.6930   24.6590   11.4440 C.3   287  TYR287      0.0534
     84  CG        16.2950   25.6900   12.3670 C.ar  287  TYR287     -0.0201
     85  CD1       15.9400   25.6840   13.7220 C.ar  287  TYR287     -0.0009
     86  CD2       17.2060   26.6650   11.9880 C.ar  287  TYR287     -0.0009
     87  CE1       16.4680   26.6080   14.6120 C.ar  287  TYR287      0.0417
     88  CE2       17.7450   27.5910   12.8530 C.ar  287  TYR287      0.0417
     89  CZ        17.3640   27.5590   14.1850 C.ar  287  TYR287      0.1957
     90  OH        17.8980   28.4790   15.0640 O.3   287  TYR287     -0.2866
     91  N         19.7970   26.5420    8.9610 N.3   289  VAL289     -0.1231
     92  CA        20.7930   26.6880   10.0100 C.3   289  VAL289      0.1692
     93  C         21.8690   27.7090    9.6660 C.2   289  VAL289      0.2592
     94  O         22.0970   28.0350    8.5010 O.2   289  VAL289     -0.2718
     95  CB        21.4860   25.3490   10.3430 C.3   289  VAL289      0.0266
     96  CG1       20.4390   24.3230   10.7470 C.3   289  VAL289      0.0020
     97  CG2       22.3300   24.8610    9.1800 C.3   289  VAL289      0.0020
     98  N         22.5350   28.2150   10.7040 N.am  290  SER290     -0.1952
     99  CA        23.4510   29.3390   10.5370 C.3   290  SER290      0.1924
    100  C         24.5620   29.0390    9.5420 C.2   290  SER290      0.2314
    101  O         24.9590   29.9470    8.8020 O.2   290  SER290     -0.2863
    102  CB        24.0560   29.7440   11.8950 C.3   290  SER290      0.2116
    103  OG        24.4540   28.5680   12.5810 O.3   290  SER290     -0.2180
    104  N         16.8890   32.8420    9.1630 N.3   329  TYR329     -0.1241
    105  CA        17.5400   34.1240    9.3840 C.3   329  TYR329      0.1605
    106  C         17.3100   35.0710    8.2150 C.2   329  TYR329      0.2264
    107  O         17.6290   36.2560    8.2940 O.2   329  TYR329     -0.2867
    108  CB        19.0370   33.9240    9.6050 C.3   329  TYR329      0.0534
    109  CG        19.3660   33.0820   10.8170 C.ar  329  TYR329     -0.0201
    110  CD1       19.9380   31.8310   10.6640 C.ar  329  TYR329     -0.0009
    111  CD2       19.1110   33.5370   12.1070 C.ar  329  TYR329     -0.0009
    112  CE1       20.2570   31.0280   11.7420 C.ar  329  TYR329      0.0417
    113  CE2       19.4230   32.7470   13.1990 C.ar  329  TYR329      0.0417
    114  CZ        19.9900   31.5060   13.0100 C.ar  329  TYR329      0.1957
    115  OH        20.3090   30.7010   14.0810 O.3   329  TYR329     -0.2866
@<TRIPOS>BOND
     1   106   107    2
     2   106   105    1
     3    94    93    2
     4   101   100    2
     5    91    92    1
     6    82    81    2
     7    81    80    1
     8   104   105    1
     9    97    95    1
    10   105   108    1
    11    79    80    1
    12   100    99    1
    13   108   109    1
    14    93    92    1
    15    93    98   am
    16    92    95    1
    17    80    83    1
    18    95    96    1
    19    99    98    1
    20    99   102    1
    21   110   109   ar
    22   110   112   ar
    23    72    71    1
    24    72    73    2
    25   109   111   ar
    26    70    71    1
    27    71    74    1
    28    83    84    1
    29   112   114   ar
    30   102   103    1
    31    47    48    1
    32    86    84   ar
    33    86    88   ar
    34   111   113   ar
    35    74    75    1
    36    84    85   ar
    37    88    89   ar
    38    75    76    1
    39   114   113   ar
    40   114   115    1
    41    48    49    1
    42    48    51    1
    43    58    57    1
    44    55    57   ar
    45    55    53   ar
    46    57    56   ar
    47    49    50    2
    48    53    52   ar
    49    56    54   ar
    50    85    87   ar
    51    54    52   ar
    52    52    51    1
    53    40    39    1
    54    40    41    2
    55    38    39    1
    56    39    42    1
    57    89    87   ar
    58    89    90    1
    59    76    77    1
    60    59    60    1
    61    77    78    1
    62    42    43    1
    63    43    44    1
    64    63    60    1
    65    63    64    1
    66    60    61    1
    67    33    35   ar
    68    33    31   ar
    69    35    36   ar
    70    28    27    1
    71    28    29    2
    72    27    30    1
    73    27    26    1
    74    44    45    1
    75    65    64   ar
    76    65    67   ar
    77    64    66   ar
    78    30    31    1
    79    61    62    2
    80    31    32   ar
    81    36    37    1
    82    36    34   ar
    83    45    46    1
    84    67    69   ar
    85     9    11   ar
    86     9     7   ar
    87    32    34   ar
    88    11    10   ar
    89    66    68   ar
    90     7     6   ar
    91    69    68   ar
    92    10     8   ar
    93    24    21    1
    94    24    25    1
    95     6     8   ar
    96     6     5    1
    97    23    22    2
    98    18    17   ar
    99    21    22    1
   100    21    20    1
   101     5     2    1
   102    17    16    1
   103    17    19   ar
   104    16    13    1
   105     1     2    1
   106    13    12    1
   107    13    14    1
   108     2     3    1
   109     4     3    2
   110    14    15    2
