@<TRIPOS>MOLECULE
tmp/1gjqA00.pdb
 226 219 0 0 0
SMALL
GASTEIGER

@<TRIPOS>ATOM
      1  N         49.3640   21.6960   11.9050 N.3    40  ILE40      -0.1231
      2  CA        49.0040   20.9990   10.6620 C.3    40  ILE40       0.1692
      3  C         47.7930   20.0790   10.9100 C.2    40  ILE40       0.2592
      4  O         46.8570   20.0490   10.1050 O.2    40  ILE40      -0.2718
      5  CB        50.2230   20.1820   10.1200 C.3    40  ILE40       0.0266
      6  CG1       51.3300   21.1380    9.6690 C.3    40  ILE40       0.0019
      7  CG2       49.8190   19.2550    8.9640 C.3    40  ILE40       0.0020
      8  CD1       52.6860   20.4740    9.4240 C.3    40  ILE40       0.0001
      9  N         47.7840   19.4110   12.0680 N.am   41  TYR41      -0.1976
     10  CA        46.6960   18.5010   12.4370 C.3    41  TYR41       0.1639
     11  C         45.3060   19.1540   12.4420 C.2    41  TYR41       0.2290
     12  O         44.3690   18.6040   11.8730 O.2    41  TYR41      -0.2864
     13  CB        46.9640   17.8260   13.7960 C.3    41  TYR41       0.0560
     14  CG        45.9650   16.7320   14.1140 C.ar   41  TYR41      -0.0198
     15  CD1       46.0910   15.4590   13.5290 C.ar   41  TYR41      -0.0009
     16  CD2       44.7890   17.0180   14.8480 C.ar   41  TYR41      -0.0009
     17  CE1       45.0580   14.5050   13.6390 C.ar   41  TYR41       0.0417
     18  CE2       43.7550   16.0760   14.9590 C.ar   41  TYR41       0.0417
     19  CZ        43.8930   14.8310   14.3440 C.ar   41  TYR41       0.1957
     20  OH        42.8440   13.9500   14.3730 O.3    41  TYR41      -0.2866
     21  N         44.5430   20.5580    8.7190 N.3    44  ARG44      -0.1231
     22  CA        44.3520   19.5590    7.6670 C.3    44  ARG44       0.1694
     23  C         43.7700   18.1840    8.0110 C.2    44  ARG44       0.2592
     24  O         43.1930   17.5470    7.1350 O.2    44  ARG44      -0.2718
     25  CB        45.6830   19.3280    6.9200 C.3    44  ARG44       0.0321
     26  CG        46.6790   20.4990    6.9190 C.3    44  ARG44       0.0489
     27  CD        47.0250   21.0130    5.5410 C.3    44  ARG44       0.2205
     28  NE        45.8470   21.4130    4.7750 N.pl3  44  ARG44      -0.0865
     29  CZ        45.8480   21.7000    3.4770 C.cat  44  ARG44       0.5346
     30  NH1       46.9710   21.6470    2.7760 N.pl3  44  ARG44       0.1354
     31  NH2       44.7050   21.9860    2.8710 N.pl3  44  ARG44       0.1354
     32  N         43.8780   17.7390    9.2640 N.am   45  CYS45      -0.1970
     33  CA        43.4230   16.3920    9.6350 C.3    45  CYS45       0.1712
     34  C         42.2300   16.1920   10.5690 C.2    45  CYS45       0.2296
     35  O         41.5770   15.1390   10.5240 O.2    45  CYS45      -0.2864
     36  CB        44.5910   15.6250   10.2460 C.3    45  CYS45       0.0983
     37  SG        46.2120   15.9180    9.5300 S.3    45  CYS45      -0.0798
     38  N         39.0950   17.4310   10.8610 N.3    47  GLY47      -0.1210
     39  CA        37.7430   17.2780   10.3430 C.3    47  GLY47       0.1956
     40  C         37.2930   15.8380   10.1590 C.2    47  GLY47       0.2612
     41  O         36.2240   15.4550   10.6290 O.2    47  GLY47      -0.2717
     42  N         38.1600   15.0250    9.5640 N.am   48  CYS48      -0.1956
     43  CA        37.8610   13.6240    9.3130 C.3    48  CYS48       0.1843
     44  C         38.2420   12.6600   10.4260 C.2    48  CYS48       0.2625
     45  O         37.5900   11.6370   10.6060 O.2    48  CYS48      -0.2714
     46  CB        38.5780   13.1590    8.0650 C.3    48  CYS48       0.0997
     47  SG        38.1770   13.9460    6.5120 S.3    48  CYS48      -0.0797
     48  N         39.3270   12.9590   11.1310 N.am   49  HIS49      -0.1973
     49  CA        39.8140   12.0790   12.1920 C.3    49  HIS49       0.1656
     50  C         39.3580   12.4040   13.5960 C.2    49  HIS49       0.2291
     51  O         39.5430   11.6010   14.5140 O.2    49  HIS49      -0.2864
     52  CB        41.3370   11.9990   12.1340 C.3    49  HIS49       0.0771
     53  CG        41.8450   11.2200   10.9640 C.ar   49  HIS49       0.0820
     54  ND1       41.9680    9.8510   10.9550 N.ar   49  HIS49      -0.2267
     55  CD2       42.2060   11.6290    9.7210 C.ar   49  HIS49       0.1154
     56  CE1       42.3820    9.4880    9.7410 C.ar   49  HIS49       0.1986
     57  NE2       42.5440   10.5290    8.9480 N.ar   49  HIS49      -0.2212
     58  N         35.0330   10.0350    9.9690 N.3    57  THR57      -0.1203
     59  CA        35.0390    9.5310    8.5790 C.3    57  THR57       0.1994
     60  C         36.3460    8.7340    8.4350 C.2    57  THR57       0.2618
     61  O         36.3800    7.6540    7.8290 O.2    57  THR57      -0.2717
     62  CB        35.0240   10.7090    7.5440 C.3    57  THR57       0.1784
     63  OG1       33.8090   11.4530    7.6820 O.3    57  THR57      -0.2211
     64  CG2       35.1180   10.2090    6.0980 C.3    57  THR57       0.0376
     65  N         37.3750    9.2550    9.1070 N.am   58  GLY58      -0.1942
     66  CA        38.6870    8.6470    9.1340 C.3    58  GLY58       0.2014
     67  C         38.8280    7.6180   10.2340 C.2    58  GLY58       0.2639
     68  O         38.0460    7.6220   11.1900 O.2    58  GLY58      -0.2714
     69  N         39.8360    6.7550   10.0860 N.am   59  LYS59      -0.1963
     70  CA        40.1670    5.6730   11.0260 C.3    59  LYS59       0.1713
     71  C         40.7750    6.1890   12.3450 C.2    59  LYS59       0.2458
     72  O         41.2080    7.3450   12.4130 O.2    59  LYS59      -0.2730
     73  CB        41.1640    4.7040   10.3630 C.3    59  LYS59       0.0311
     74  CG        40.5540    3.6500    9.4430 C.3    59  LYS59       0.0038
     75  CD        41.6320    2.7180    8.8960 C.3    59  LYS59       0.0206
     76  CE        41.1070    1.6990    7.9020 C.3    59  LYS59       0.1093
     77  NZ        42.2290    0.9070    7.3210 N.3    59  LYS59      -0.1314
     78  N         40.7530    5.3700   13.4270 N.am   60  PRO60      -0.2716
     79  CA        41.3450    5.8500   14.6890 C.3    60  PRO60       0.1536
     80  C         42.8530    6.0860   14.6140 C.2    60  PRO60       0.2598
     81  O         43.5810    5.2470   14.0800 O.2    60  PRO60      -0.2715
     82  CB        41.0480    4.7110   15.6540 C.3    60  PRO60       0.0310
     83  CG        39.7460    4.2190   15.1710 C.3    60  PRO60       0.0237
     84  CD        39.9480    4.1550   13.6840 C.3    60  PRO60       0.0939
     85  N         43.3040    7.2450   15.1000 N.am   61  LEU61      -0.1978
     86  CA        44.7330    7.5910   15.1130 C.3    61  LEU61       0.1596
     87  C         45.2780    7.7000   16.5420 C.2    61  LEU61       0.2287
     88  O         46.1400    8.5280   16.8590 O.2    61  LEU61      -0.2864
     89  CB        45.0000    8.8840   14.3330 C.3    61  LEU61       0.0297
     90  CG        44.6710    9.0380   12.8520 C.3    61  LEU61       0.0022
     91  CD1       45.2870   10.3260   12.3360 C.3    61  LEU61       0.0001
     92  CD2       45.1800    7.8580   12.0690 C.3    61  LEU61       0.0001
     93  N         47.1280    2.1030   18.0120 N.3    65  ILE65      -0.1231
     94  CA        47.1250    1.7400   16.5970 C.3    65  ILE65       0.1692
     95  C         48.3450    2.2800   15.8350 C.2    65  ILE65       0.2592
     96  O         48.9890    1.5250   15.1070 O.2    65  ILE65      -0.2718
     97  CB        45.7510    2.1520   15.9200 C.3    65  ILE65       0.0266
     98  CG1       44.6730    1.1210   16.2710 C.3    65  ILE65       0.0019
     99  CG2       45.8470    2.2410   14.3840 C.3    65  ILE65       0.0020
    100  CD1       43.4450    1.6910   16.9450 C.3    65  ILE65       0.0001
    101  N         48.6750    3.5570   16.0340 N.am   66  THR66      -0.1953
    102  CA        49.8000    4.2020   15.3430 C.3    66  THR66       0.1897
    103  C         51.2010    3.6890   15.6900 C.2    66  THR66       0.2313
    104  O         52.0520    3.5710   14.8030 O.2    66  THR66      -0.2863
    105  CB        49.7600    5.7190   15.5130 C.3    66  THR66       0.1794
    106  OG1       49.8720    6.0460   16.9020 O.3    66  THR66      -0.2208
    107  CG2       48.4600    6.2800   14.9490 C.3    66  THR66       0.0378
    108  N         51.6210    0.3730   13.9650 N.3    69  ARG69      -0.1245
    109  CA        51.9270    0.5550   12.5460 C.3    69  ARG69       0.1563
    110  C         53.4180    0.8660   12.3460 C.2    69  ARG69       0.2260
    111  O         54.0480    0.3280   11.4340 O.2    69  ARG69      -0.2867
    112  CB        51.0790    1.6850   11.9430 C.3    69  ARG69       0.0307
    113  CG        49.5540    1.4820   11.8950 C.3    69  ARG69       0.0489
    114  CD        49.1130    0.2180   11.1670 C.3    69  ARG69       0.2205
    115  NE        47.7520    0.3270   10.6430 N.pl3  69  ARG69      -0.0865
    116  CZ        47.1180   -0.6280    9.9590 C.cat  69  ARG69       0.5346
    117  NH1       47.7100   -1.7920    9.7140 N.pl3  69  ARG69       0.1354
    118  NH2       45.9130   -0.3940    9.4510 N.pl3  69  ARG69       0.1354
    119  N         55.4510    3.0000    8.2290 N.3    73  TYR73      -0.1227
    120  CA        54.1100    2.7130    7.6830 C.3    73  TYR73       0.1736
    121  C         53.3490    4.0360    7.6180 C.2    73  TYR73       0.2595
    122  O         52.7550    4.3740    6.5880 O.2    73  TYR73      -0.2718
    123  CB        53.3420    1.6970    8.5790 C.3    73  TYR73       0.0548
    124  CG        51.9020    1.3110    8.1560 C.ar   73  TYR73      -0.0200
    125  CD1       50.8470    2.2600    8.1680 C.ar   73  TYR73      -0.0009
    126  CD2       51.5960    0.0070    7.7210 C.ar   73  TYR73      -0.0009
    127  CE1       49.5480    1.9360    7.7520 C.ar   73  TYR73       0.0417
    128  CE2       50.2680   -0.3360    7.2950 C.ar   73  TYR73       0.0417
    129  CZ        49.2590    0.6490    7.3140 C.ar   73  TYR73       0.1957
    130  OH        47.9760    0.3810    6.8870 O.3    73  TYR73      -0.2866
    131  N         53.3480    4.7490    8.7430 N.am   74  LEU74      -0.1980
    132  CA        52.6680    6.0300    8.8710 C.3    74  LEU74       0.1596
    133  C         53.1220    7.0610    7.8500 C.2    74  LEU74       0.2287
    134  O         52.2830    7.6770    7.1970 O.2    74  LEU74      -0.2864
    135  CB        52.8350    6.5700   10.2850 C.3    74  LEU74       0.0297
    136  CG        52.2330    5.7320   11.4100 C.3    74  LEU74       0.0022
    137  CD1       52.7350    6.2700   12.7200 C.3    74  LEU74       0.0001
    138  CD2       50.7130    5.7240   11.3550 C.3    74  LEU74       0.0001
    139  N         51.7510    6.0320    4.3740 N.3    77  LEU77      -0.1231
    140  CA        50.3130    6.2450    4.1990 C.3    77  LEU77       0.1693
    141  C         49.9540    7.7260    4.0890 C.2    77  LEU77       0.2591
    142  O         49.0970    8.0880    3.2800 O.2    77  LEU77      -0.2718
    143  CB        49.4920    5.5570    5.3020 C.3    77  LEU77       0.0284
    144  CG        48.0750    5.1400    4.8620 C.3    77  LEU77       0.0019
    145  CD1       47.6540    3.8500    5.5170 C.3    77  LEU77       0.0001
    146  CD2       47.0630    6.2330    5.1320 C.3    77  LEU77       0.0001
    147  N         50.6200    8.5780    4.8690 N.am   78  ILE78      -0.1980
    148  CA        50.3600   10.0170    4.8140 C.3    78  ILE78       0.1595
    149  C         50.8390   10.5630    3.4590 C.2    78  ILE78       0.2287
    150  O         50.1800   11.4150    2.8650 O.2    78  ILE78      -0.2864
    151  CB        51.0010   10.7800    6.0240 C.3    78  ILE78       0.0276
    152  CG1       50.4010   10.2770    7.3460 C.3    78  ILE78       0.0022
    153  CG2       50.7130   12.2880    5.9400 C.3    78  ILE78       0.0022
    154  CD1       51.2050   10.6290    8.5940 C.3    78  ILE78       0.0001
    155  N         45.1490    6.6380    0.3490 N.3    82  THR82      -0.1218
    156  CA        44.4330    5.3930    0.0180 C.3    82  THR82       0.1862
    157  C         43.2580    5.7790   -0.9160 C.2    82  THR82       0.2287
    158  O         42.9920    6.9710   -1.0890 O.2    82  THR82      -0.2866
    159  CB        43.8090    4.7020    1.2980 C.3    82  THR82       0.1770
    160  OG1       42.7480    5.5070    1.8220 O.3    82  THR82      -0.2211
    161  CG2       44.8290    4.4440    2.3900 C.3    82  THR82       0.0375
    162  N         40.1230    5.0530   -0.4210 N.3    84  LEU84      -0.1231
    163  CA        38.9180    5.1370    0.4040 C.3    84  LEU84       0.1693
    164  C         38.6950    6.4310    1.2050 C.2    84  LEU84       0.2593
    165  O         38.1830    6.3940    2.3300 O.2    84  LEU84      -0.2718
    166  CB        38.8520    3.9120    1.3260 C.3    84  LEU84       0.0284
    167  CG        38.9080    2.5150    0.6950 C.3    84  LEU84       0.0019
    168  CD1       39.1580    1.4470    1.7620 C.3    84  LEU84       0.0001
    169  CD2       37.6180    2.2450   -0.0780 C.3    84  LEU84       0.0001
    170  N         39.0540    7.5700    0.6160 N.am   85  GLY85      -0.1942
    171  CA        38.8570    8.8470    1.2800 C.3    85  GLY85       0.2014
    172  C         40.0500    9.4870    1.9630 C.2    85  GLY85       0.2639
    173  O         39.9150   10.5730    2.5280 O.2    85  GLY85      -0.2714
    174  N         41.2080    8.8370    1.9310 N.am   86  MET86      -0.1963
    175  CA        42.4030    9.4000    2.5500 C.3    86  MET86       0.1722
    176  C         43.2940   10.0920    1.5090 C.2    86  MET86       0.2458
    177  O         43.8300    9.4400    0.6060 O.2    86  MET86      -0.2730
    178  CB        43.1470    8.3200    3.3330 C.3    86  MET86       0.0427
    179  CG        44.4780    8.7230    3.9580 C.3    86  MET86       0.0599
    180  SD        44.4870   10.1020    5.1190 S.3    86  MET86      -0.1393
    181  CE        46.2040   10.5420    4.9760 C.3    86  MET86       0.0692
    182  N         43.4060   11.4380    1.5860 N.am   87  PRO87      -0.2727
    183  CA        44.2270   12.2130    0.6490 C.3    87  PRO87       0.1402
    184  C         45.7260   11.9550    0.6720 C.2    87  PRO87       0.2269
    185  O         46.3000   11.5530    1.6860 O.2    87  PRO87      -0.2865
    186  CB        43.8740   13.6690    0.9860 C.3    87  PRO87       0.0296
    187  CG        43.3490   13.5950    2.3620 C.3    87  PRO87       0.0237
    188  CD        42.5740   12.3460    2.3950 C.3    87  PRO87       0.0939
    189  N         48.8820   13.3990    0.8600 N.3    89  TRP89      -0.1241
    190  CA        49.6060   14.5970    1.2930 C.3    89  TRP89       0.1605
    191  C         51.0120   14.8080    0.7140 C.2    89  TRP89       0.2264
    192  O         51.4490   15.9500    0.5640 O.2    89  TRP89      -0.2867
    193  CB        49.6320   14.6880    2.8250 C.3    89  TRP89       0.0550
    194  CG        48.2620   14.7090    3.4650 C.ar   89  TRP89       0.0003
    195  CD1       47.6490   13.6740    4.1030 C.ar   89  TRP89       0.0946
    196  CD2       47.3220   15.7920    3.4640 C.ar   89  TRP89       0.0152
    197  NE1       46.3800   14.0310    4.4900 N.ar   89  TRP89      -0.2442
    198  CE2       46.1490   15.3280    4.1140 C.ar   89  TRP89       0.0810
    199  CE3       47.3490   17.1150    2.9690 C.ar   89  TRP89       0.0012
    200  CZ2       44.9990   16.1430    4.2830 C.ar   89  TRP89       0.0191
    201  CZ3       46.1990   17.9320    3.1320 C.ar   89  TRP89       0.0001
    202  CH2       45.0410   17.4330    3.7870 C.ar   89  TRP89       0.0015
    203  N         52.2000   18.5460    1.4820 N.3    95  LEU95      -0.1245
    204  CA        53.0440   18.5730    2.6750 C.3    95  LEU95       0.1561
    205  C         54.4380   18.0900    2.2970 C.2    95  LEU95       0.2260
    206  O         54.5930   17.2150    1.4390 O.2    95  LEU95      -0.2867
    207  CB        52.4670   17.6980    3.7980 C.3    95  LEU95       0.0270
    208  CG        51.2260   18.1480    4.5840 C.3    95  LEU95       0.0019
    209  CD1       50.7980   17.0430    5.5290 C.3    95  LEU95       0.0001
    210  CD2       51.5100   19.4240    5.3620 C.3    95  LEU95       0.0001
    211  N         54.3960   14.6470   11.4680 N.3   103  MET103     -0.1245
    212  CA        53.0210   14.1800   11.6140 C.3   103  MET103      0.1570
    213  C         52.9620   12.7340   12.0670 C.2   103  MET103      0.2261
    214  O         52.1400   12.3870   12.9120 O.2   103  MET103     -0.2867
    215  CB        52.2300   14.3410   10.3120 C.3   103  MET103      0.0387
    216  CG        51.8410   15.7760    9.9800 C.3   103  MET103      0.0595
    217  SD        51.1410   16.7360   11.3590 S.3   103  MET103     -0.1393
    218  CE        49.5570   15.8710   11.6340 C.3   103  MET103      0.0692
    219  N         51.1860   11.7190   15.7780 N.3   107  ILE107     -0.1245
    220  CA        50.0770   10.7910   15.9770 C.3   107  ILE107      0.1561
    221  C         50.4230    9.5660   16.8310 C.2   107  ILE107      0.2260
    222  O         49.5440    8.7850   17.1850 O.2   107  ILE107     -0.2867
    223  CB        49.3800   10.3990   14.6380 C.3   107  ILE107      0.0252
    224  CG1       50.3730    9.7570   13.6590 C.3   107  ILE107      0.0019
    225  CG2       48.7030   11.6330   14.0410 C.3   107  ILE107      0.0019
    226  CD1       49.7750    9.3390   12.3310 C.3   107  ILE107      0.0001
@<TRIPOS>BOND
     1   158   157    2
     2   157   156    1
     3   162   163    1
     4   169   167    1
     5   156   155    1
     6   156   159    1
     7   163   164    1
     8   163   166    1
     9   192   191    2
    10   177   176    2
    11   170   164   am
    12   170   171    1
    13   183   184    1
    14   183   186    1
    15   183   182    1
    16   184   185    2
    17   167   166    1
    18   167   168    1
    19   191   190    1
    20   189   190    1
    21   186   187    1
    22   164   165    2
    23   171   172    1
    24   190   193    1
    25   159   160    1
    26   159   161    1
    27   206   205    2
    28   203   204    1
    29   176   182   am
    30   176   175    1
    31   182   188    1
    32   174   172   am
    33   174   175    1
    34   172   173    2
    35   205   204    1
    36   187   188    1
    37   175   178    1
    38   204   207    1
    39    30    29    1
    40   193   194    1
    41   150   149    2
    42    31    29    1
    43   199   201   ar
    44   199   196   ar
    45   201   202   ar
    46   142   141    2
    47   178   179    1
    48   149   148    1
    49   196   194   ar
    50   196   198   ar
    51   194   195   ar
    52    29    28    2
    53   202   200   ar
    54   207   208    1
    55   179   180    1
    56   141   140    1
    57   141   147   am
    58   195   197   ar
    59   198   200   ar
    60   198   197   ar
    61   140   139    1
    62   140   143    1
    63   208   210    1
    64   208   209    1
    65    28    27    1
    66   148   147    1
    67   148   151    1
    68   144   146    1
    69   144   143    1
    70   144   145    1
    71   181   180    1
    72    27    26    1
    73   153   151    1
    74   151   152    1
    75    64    62    1
    76    47    46    1
    77   122   121    2
    78   130   129    1
    79    26    25    1
    80    25    22    1
    81    24    23    2
    82   134   133    2
    83   128   129   ar
    84   128   126   ar
    85   129   127   ar
    86    77    76    1
    87   152   154    1
    88    62    63    1
    89    62    59    1
    90   121   120    1
    91   121   131   am
    92    22    23    1
    93    22    21    1
    94   120   119    1
    95   120   123    1
    96   126   124   ar
    97   127   125   ar
    98    61    60    2
    99   133   132    1
   100    76    75    1
   101    23    32   am
   102    46    43    1
   103   124   125   ar
   104   124   123    1
   105    60    59    1
   106    60    65   am
   107    59    58    1
   108   131   132    1
   109   132   135    1
   110    75    74    1
   111    57    55   ar
   112    57    56   ar
   113     7     5    1
   114    65    66    1
   115    66    67    1
   116    32    33    1
   117    43    42    1
   118    43    44    1
   119     8     6    1
   120    74    73    1
   121   118   116    1
   122    37    36    1
   123    42    40   am
   124    33    36    1
   125    33    34    1
   126     6     5    1
   127   117   116    1
   128    55    53   ar
   129    56    54   ar
   130   116   115    2
   131   216   215    1
   132   216   217    1
   133    69    67   am
   134    69    70    1
   135     4     3    2
   136     5     2    1
   137    40    39    1
   138    40    41    2
   139    67    68    2
   140   135   136    1
   141   215   212    1
   142    39    38    1
   143    73    70    1
   144    44    45    2
   145    44    48   am
   146    35    34    2
   147   115   114    1
   148     2     3    1
   149     2     1    1
   150     3     9   am
   151    54    53   ar
   152    53    52    1
   153    70    71    1
   154    48    49    1
   155   114   113    1
   156   138   136    1
   157   217   218    1
   158   136   137    1
   159   111   110    2
   160   211   212    1
   161   212   213    1
   162    12    11    2
   163   113   112    1
   164   112   109    1
   165   213   214    2
   166     9    10    1
   167    92    90    1
   168    52    49    1
   169    49    50    1
   170   226   224    1
   171    91    90    1
   172    71    72    2
   173    71    78   am
   174   110   109    1
   175    10    11    1
   176    10    13    1
   177   109   108    1
   178    90    89    1
   179    78    84    1
   180    78    79    1
   181    15    17   ar
   182    15    14   ar
   183    50    51    2
   184    17    19   ar
   185   224   223    1
   186    84    83    1
   187    13    14    1
   188   225   223    1
   189    81    80    2
   190    14    16   ar
   191    89    86    1
   192    19    20    1
   193    19    18   ar
   194    99    97    1
   195    80    79    1
   196    80    85   am
   197   223   220    1
   198    79    82    1
   199   104   103    2
   200    16    18   ar
   201   107   105    1
   202    85    86    1
   203    96    95    2
   204    86    87    1
   205    83    82    1
   206   102   105    1
   207   102   103    1
   208   102   101    1
   209   105   106    1
   210   219   220    1
   211    95   101   am
   212    95    94    1
   213    97    98    1
   214    97    94    1
   215   220   221    1
   216    98   100    1
   217    87    88    2
   218    94    93    1
   219   221   222    2
