@<TRIPOS>MOLECULE
tmp/1gjvA00.pdb
 187 178 0 0 0
SMALL
GASTEIGER

@<TRIPOS>ATOM
      1  N         93.0280  118.8740   41.3750 N.3   208  GLU208     -0.1245
      2  CA        93.6750  119.3440   40.1570 C.3   208  GLU208      0.1567
      3  C         94.1490  118.1170   39.3520 C.2   208  GLU208      0.2260
      4  O         93.8080  117.9570   38.1670 O.2   208  GLU208     -0.2867
      5  CB        94.9010  120.2200   40.4560 C.3   208  GLU208      0.0388
      6  CG        94.6360  121.6040   41.0480 C.3   208  GLU208      0.1160
      7  CD        93.5340  122.4050   40.3450 C.2   208  GLU208      0.3649
      8  OE1       93.4700  122.4330   39.0890 O.co2 208  GLU208     -0.2457
      9  OE2       92.7330  123.0340   41.0690 O.co2 208  GLU208     -0.2457
     10  N         91.4550  115.9730   37.9840 N.3   211  LYS211     -0.1231
     11  CA        90.8430  116.6520   36.8610 C.3   211  LYS211      0.1693
     12  C         91.6640  116.3860   35.6020 C.2   211  LYS211      0.2592
     13  O         91.1080  115.9940   34.5780 O.2   211  LYS211     -0.2718
     14  CB        90.7270  118.1550   37.1300 C.3   211  LYS211      0.0285
     15  CG        89.4040  118.5770   37.7960 C.3   211  LYS211      0.0035
     16  CD        89.2510  120.1160   37.8720 C.3   211  LYS211      0.0206
     17  CE        90.2730  120.7380   38.8300 C.3   211  LYS211      0.1093
     18  NZ        90.5870  122.1520   38.5080 N.3   211  LYS211     -0.1314
     19  N         92.9820  116.5820   35.6830 N.am  212  ASN212     -0.1960
     20  CA        93.8570  116.3560   34.5360 C.3   212  ASN212      0.1819
     21  C         93.7040  114.9290   34.0000 C.2   212  ASN212      0.2621
     22  O         93.4740  114.6990   32.7990 O.2   212  ASN212     -0.2715
     23  CB        95.3150  116.5800   34.9280 C.3   212  ASN212      0.1195
     24  CG        95.6050  118.0040   35.3060 C.2   212  ASN212      0.2630
     25  OD1       94.8870  118.9020   34.9120 O.2   212  ASN212     -0.2716
     26  ND2       96.6870  118.2240   36.0490 N.am  212  ASN212     -0.0877
     27  N         93.8190  113.9720   34.9140 N.am  213  ALA213     -0.1977
     28  CA        93.7240  112.5750   34.5540 C.3   213  ALA213      0.1597
     29  C         92.4060  112.2680   33.8720 C.2   213  ALA213      0.2287
     30  O         92.3830  111.6470   32.8110 O.2   213  ALA213     -0.2864
     31  CB        93.8970  111.7180   35.7920 C.3   213  ALA213      0.0319
     32  N         90.1770  114.3600   32.4110 N.3   215  ARG215     -0.1231
     33  CA        89.9810  115.0490   31.1530 C.3   215  ARG215      0.1694
     34  C         90.7710  114.2960   30.0850 C.2   215  ARG215      0.2591
     35  O         90.2510  113.9940   29.0040 O.2   215  ARG215     -0.2718
     36  CB        90.4790  116.4930   31.2390 C.3   215  ARG215      0.0321
     37  CG        90.4070  117.2430   29.9150 C.3   215  ARG215      0.0489
     38  CD        90.5180  118.7280   30.1280 C.3   215  ARG215      0.2205
     39  NE        91.7420  119.2990   29.5700 N.pl3 215  ARG215     -0.0865
     40  CZ        92.0140  119.3890   28.2630 C.cat 215  ARG215      0.5346
     41  NH1       91.1410  118.9390   27.3590 N.pl3 215  ARG215      0.1354
     42  NH2       93.1640  119.9370   27.8570 N.pl3 215  ARG215      0.1354
     43  N         92.0240  113.9760   30.3960 N.am  216  ALA216     -0.1980
     44  CA        92.8550  113.2730   29.4380 C.3   216  ALA216      0.1597
     45  C         92.1650  112.0040   28.9380 C.2   216  ALA216      0.2287
     46  O         92.0690  111.7610   27.7350 O.2   216  ALA216     -0.2864
     47  CB        94.1990  112.9380   30.0620 C.3   216  ALA216      0.0319
     48  N         96.9180  107.3020   34.6410 N.3   248  ASP248     -0.1239
     49  CA        95.7910  107.2560   33.7180 C.3   248  ASP248      0.1674
     50  C         96.2070  106.5530   32.4400 C.2   248  ASP248      0.2266
     51  O         97.3870  106.3070   32.2170 O.2   248  ASP248     -0.2867
     52  CB        95.2910  108.6570   33.3790 C.3   248  ASP248      0.1410
     53  CG        96.3670  109.5380   32.7730 C.2   248  ASP248      0.3668
     54  OD1       96.7450  110.5510   33.4140 O.co2 248  ASP248     -0.2456
     55  OD2       96.8390  109.2310   31.6580 O.co2 248  ASP248     -0.2456
     56  N         95.1280  107.8380   29.5160 N.3   250  GLY250     -0.1225
     57  CA        94.5950  108.8740   28.6560 C.3   250  GLY250      0.1811
     58  C         95.5040  109.4160   27.5640 C.2   250  GLY250      0.2280
     59  O         95.3760  110.5960   27.2020 O.2   250  GLY250     -0.2866
     60  N         98.8680  110.0770   27.5350 N.3   252  GLY252     -0.1210
     61  CA       100.1250  110.7230   27.8710 C.3   252  GLY252      0.1956
     62  C        100.2260  112.1890   27.5090 C.2   252  GLY252      0.2611
     63  O         99.2860  112.7900   26.9820 O.2   252  GLY252     -0.2717
     64  N        101.3770  112.7770   27.8260 N.am  253  ILE253     -0.1979
     65  CA       101.6580  114.1750   27.5320 C.3   253  ILE253      0.1595
     66  C        102.5970  114.1670   26.3360 C.2   253  ILE253      0.2287
     67  O        103.7440  113.6990   26.4310 O.2   253  ILE253     -0.2864
     68  CB       102.3740  114.8380   28.7040 C.3   253  ILE253      0.0276
     69  CG1      101.4740  114.8050   29.9300 C.3   253  ILE253      0.0022
     70  CG2      102.7880  116.2600   28.3460 C.3   253  ILE253      0.0022
     71  CD1      101.9970  115.6440   31.1030 C.3   253  ILE253      0.0001
     72  N        104.7350  118.7980   24.2470 N.3   257  ASP257     -0.1239
     73  CA       104.1930  119.5880   25.3470 C.3   257  ASP257      0.1674
     74  C        104.8940  119.4220   26.6870 C.2   257  ASP257      0.2266
     75  O        104.7280  120.2450   27.5920 O.2   257  ASP257     -0.2867
     76  CB       102.7090  119.2970   25.5120 C.3   257  ASP257      0.1410
     77  CG       101.9180  119.6100   24.2590 C.2   257  ASP257      0.3668
     78  OD1      102.3920  120.4560   23.4620 O.co2 257  ASP257     -0.2456
     79  OD2      100.8240  119.0160   24.0760 O.co2 257  ASP257     -0.2456
     80  N        103.8730  121.9060   30.0310 N.3   261  VAL261     -0.1245
     81  CA       102.8160  121.6250   30.9740 C.3   261  VAL261      0.1561
     82  C        103.1260  122.1550   32.3830 C.2   261  VAL261      0.2260
     83  O        102.2180  122.3610   33.1630 O.2   261  VAL261     -0.2867
     84  CB       102.5130  120.1270   31.0250 C.3   261  VAL261      0.0252
     85  CG1      101.9950  119.6660   29.6810 C.3   261  VAL261      0.0019
     86  CG2      103.7620  119.3610   31.4050 C.3   261  VAL261      0.0019
     87  N        100.2800  127.5880   30.6690 N.3   266  PHE266     -0.1227
     88  CA       100.2580  126.6480   29.5610 C.3   266  PHE266      0.1736
     89  C         99.0220  125.7500   29.6460 C.2   266  PHE266      0.2596
     90  O         98.6060  125.3330   30.7150 O.2   266  PHE266     -0.2718
     91  CB       101.5000  125.7670   29.5060 C.3   266  PHE266      0.0547
     92  CG       101.4700  124.8200   28.3530 C.ar  266  PHE266     -0.0202
     93  CD1      101.7010  125.2880   27.0530 C.ar  266  PHE266     -0.0042
     94  CD2      101.0310  123.5130   28.5300 C.ar  266  PHE266     -0.0042
     95  CE1      101.4780  124.4710   25.9380 C.ar  266  PHE266     -0.0003
     96  CE2      100.8030  122.6930   27.4250 C.ar  266  PHE266     -0.0003
     97  CZ       101.0240  123.1760   26.1210 C.ar  266  PHE266     -0.0000
     98  N         98.4260  125.4290   28.5170 N.am  267  THR267     -0.1939
     99  CA        97.2350  124.6090   28.5950 C.3   267  THR267      0.2028
    100  C         96.8200  124.2190   27.2000 C.2   267  THR267      0.2643
    101  O         96.9920  125.0050   26.2720 O.2   267  THR267     -0.2714
    102  CB        96.0930  125.3960   29.2950 C.3   267  THR267      0.1808
    103  OG1       94.8690  124.6590   29.2390 O.3   267  THR267     -0.2208
    104  CG2       95.8950  126.7220   28.6290 C.3   267  THR267      0.0379
    105  N         96.3070  123.0010   27.0440 N.am  268  THR268     -0.1936
    106  CA        95.8630  122.5510   25.7450 C.3   268  THR268      0.2028
    107  C         94.3430  122.5260   25.7960 C.2   268  THR268      0.2642
    108  O         93.6890  121.7880   25.0590 O.2   268  THR268     -0.2714
    109  CB        96.4090  121.1630   25.4060 C.3   268  THR268      0.1808
    110  OG1       95.8470  120.1960   26.2970 O.3   268  THR268     -0.2208
    111  CG2       97.9070  121.1450   25.5320 C.3   268  THR268      0.0379
    112  N         93.7860  123.3490   26.6850 N.am  269  ALA269     -0.1977
    113  CA        92.3350  123.4690   26.8500 C.3   269  ALA269      0.1597
    114  C         91.8540  124.7800   26.2190 C.2   269  ALA269      0.2287
    115  O         91.9900  125.8580   26.8090 O.2   269  ALA269     -0.2864
    116  CB        91.9600  123.4360   28.3330 C.3   269  ALA269      0.0319
    117  N         89.9290  126.7630   33.3310 N.3   270  GLY270     -0.1210
    118  CA        90.9540  125.9480   32.7020 C.3   270  GLY270      0.1956
    119  C         92.0770  126.8040   32.1410 C.2   270  GLY270      0.2612
    120  O         92.3890  126.7230   30.9440 O.2   270  GLY270     -0.2717
    121  N         92.7020  127.6000   33.0120 N.am  271  PHE271     -0.1962
    122  CA        93.7740  128.5070   32.6130 C.3   271  PHE271      0.1771
    123  C         95.2240  128.0260   32.7250 C.2   271  PHE271      0.2620
    124  O         96.1570  128.8320   32.6300 O.2   271  PHE271     -0.2715
    125  CB        93.6080  129.8520   33.3470 C.3   271  PHE271      0.0574
    126  CG        93.2760  129.7340   34.8300 C.ar  271  PHE271     -0.0200
    127  CD1       94.2880  129.6000   35.7900 C.ar  271  PHE271     -0.0042
    128  CD2       91.9490  129.8380   35.2750 C.ar  271  PHE271     -0.0042
    129  CE1       93.9820  129.5830   37.1880 C.ar  271  PHE271     -0.0003
    130  CE2       91.6320  129.8200   36.6610 C.ar  271  PHE271     -0.0003
    131  CZ        92.6500  129.6950   37.6170 C.ar  271  PHE271     -0.0000
    132  N         95.4220  126.7250   32.9100 N.am  272  GLY272     -0.1940
    133  CA        96.7740  126.1950   33.0030 C.3   272  GLY272      0.2014
    134  C         97.5580  126.4610   34.2850 C.2   272  GLY272      0.2639
    135  O         98.7610  126.7760   34.2320 O.2   272  GLY272     -0.2714
    136  N         96.8990  126.3380   35.4380 N.am  273  PHE273     -0.1959
    137  CA        97.5820  126.5510   36.7200 C.3   273  PHE273      0.1771
    138  C         97.7630  125.2910   37.5640 C.2   273  PHE273      0.2620
    139  O         98.6950  125.2130   38.3580 O.2   273  PHE273     -0.2715
    140  CB        96.8590  127.6350   37.5370 C.3   273  PHE273      0.0574
    141  CG        97.4310  129.0210   37.3290 C.ar  273  PHE273     -0.0200
    142  CD1       97.6530  129.5130   36.0330 C.ar  273  PHE273     -0.0042
    143  CD2       97.8140  129.8040   38.4170 C.ar  273  PHE273     -0.0042
    144  CE1       98.2540  130.7560   35.8270 C.ar  273  PHE273     -0.0003
    145  CE2       98.4160  131.0490   38.2250 C.ar  273  PHE273     -0.0003
    146  CZ        98.6380  131.5270   36.9260 C.ar  273  PHE273     -0.0000
    147  N         96.8820  124.3100   37.3440 N.am  274  GLY274     -0.1940
    148  CA        96.8710  123.0490   38.0710 C.3   274  GLY274      0.2014
    149  C         98.2130  122.4260   38.3900 C.2   274  GLY274      0.2639
    150  O         98.5450  122.2120   39.5680 O.2   274  GLY274     -0.2714
    151  N         98.9930  122.1450   37.3490 N.am  275  LEU275     -0.1963
    152  CA       100.2850  121.5190   37.5480 C.3   275  LEU275      0.1713
    153  C        101.3100  122.4200   38.2140 C.2   275  LEU275      0.2458
    154  O        101.7940  122.1050   39.2890 O.2   275  LEU275     -0.2730
    155  CB       100.8190  120.9940   36.2210 C.3   275  LEU275      0.0310
    156  CG       100.2590  119.6400   35.7880 C.3   275  LEU275      0.0022
    157  CD1      100.7150  119.3360   34.3640 C.3   275  LEU275      0.0001
    158  CD2      100.7340  118.5680   36.7480 C.3   275  LEU275      0.0001
    159  N        101.6560  123.5550   37.5860 N.am  276  PRO276     -0.2727
    160  CA       102.6440  124.4410   38.2110 C.3   276  PRO276      0.1402
    161  C        102.2380  124.8480   39.6330 C.2   276  PRO276      0.2269
    162  O        103.0950  124.9920   40.5130 O.2   276  PRO276     -0.2865
    163  CB       102.7150  125.6110   37.2420 C.3   276  PRO276      0.0296
    164  CG       101.3120  125.6400   36.6390 C.3   276  PRO276      0.0237
    165  CD       101.0370  124.1910   36.4070 C.3   276  PRO276      0.0939
    166  N        106.1310  113.9340   36.8110 N.3   291  LEU291     -0.1245
    167  CA       105.3700  113.3150   35.7600 C.3   291  LEU291      0.1561
    168  C        106.1540  112.2420   35.0370 C.2   291  LEU291      0.2260
    169  O        107.3660  112.3310   34.9020 O.2   291  LEU291     -0.2867
    170  CB       104.9490  114.3650   34.7510 C.3   291  LEU291      0.0270
    171  CG       104.2260  115.5890   35.2950 C.3   291  LEU291      0.0019
    172  CD1      103.6130  116.3230   34.1230 C.3   291  LEU291      0.0001
    173  CD2      103.1250  115.2030   36.2660 C.3   291  LEU291      0.0001
    174  N         99.5660  108.7540   31.3610 N.3   299  THR299     -0.1218
    175  CA       100.4880  109.4290   32.2210 C.3   299  THR299      0.1862
    176  C        100.4540  108.9200   33.6460 C.2   299  THR299      0.2287
    177  O         99.4320  108.4100   34.1480 O.2   299  THR299     -0.2866
    178  CB       100.2170  110.9270   32.2220 C.3   299  THR299      0.1770
    179  OG1      100.3480  111.4320   30.8850 O.3   299  THR299     -0.2211
    180  CG2      101.2030  111.6430   33.1550 C.3   299  THR299      0.0375
    181  N        101.4360  110.3160   37.4260 N.3   301  VAL301     -0.1245
    182  CA       101.7860  111.4900   38.2070 C.3   301  VAL301      0.1561
    183  C        102.1370  111.0460   39.6220 C.2   301  VAL301      0.2260
    184  O        101.3950  110.2930   40.2620 O.2   301  VAL301     -0.2867
    185  CB       100.5960  112.4740   38.2210 C.3   301  VAL301      0.0252
    186  CG1      100.9550  113.7750   38.9620 C.3   301  VAL301      0.0019
    187  CG2      100.1750  112.7390   36.7760 C.3   301  VAL301      0.0019
@<TRIPOS>BOND
     1    78    77   ar
     2    79    77   ar
     3    72    73    1
     4    77    76    1
     5   108   107    2
     6    73    76    1
     7    73    74    1
     8   109   111    1
     9   109   106    1
    10   109   110    1
    11   106   107    1
    12   106   105    1
    13   107   112   am
    14    95    97   ar
    15    95    93   ar
    16    97    96   ar
    17   114   115    2
    18   114   113    1
    19   101   100    2
    20    66    67    2
    21    66    65    1
    22   112   113    1
    23    74    75    2
    24   113   116    1
    25    63    62    2
    26   105   100   am
    27    93    92   ar
    28   100    99    1
    29    59    58    2
    30    41    40    1
    31    96    94   ar
    32    62    64   am
    33    62    61    1
    34    65    64    1
    35    65    68    1
    36    60    61    1
    37    58    57    1
    38    46    45    2
    39    42    40    1
    40    40    39    2
    41    70    68    1
    42    92    94   ar
    43    92    91    1
    44    98    99    1
    45    98    89   am
    46    99   102    1
    47   104   102    1
    48    57    56    1
    49    68    69    1
    50    45    44    1
    51    35    34    2
    52   103   102    1
    53    44    47    1
    54    44    43    1
    55    91    88    1
    56    88    89    1
    57    88    87    1
    58    39    38    1
    59    89    90    2
    60    85    84    1
    61    37    38    1
    62    37    36    1
    63    69    71    1
    64    80    81    1
    65    34    43   am
    66    34    33    1
    67   179   178    1
    68   120   119    2
    69    81    84    1
    70    81    82    1
    71    84    86    1
    72    33    36    1
    73    33    32    1
    74   174   175    1
    75    55    53   ar
    76   119   118    1
    77   119   121   am
    78    51    50    2
    79   175   178    1
    80   175   176    1
    81   178   180    1
    82    82    83    2
    83    50    49    1
    84   122   123    1
    85   122   121    1
    86   122   125    1
    87   124   123    2
    88   118   117    1
    89   123   132   am
    90    53    52    1
    91    53    54   ar
    92    22    21    2
    93    30    29    2
    94   132   133    1
    95   133   134    1
    96   125   126    1
    97    52    49    1
    98   176   177    2
    99    49    48    1
   100    29    28    1
   101    21    20    1
   102    21    27   am
   103   172   171    1
   104   135   134    2
   105   134   136   am
   106   157   156    1
   107    20    23    1
   108    20    19    1
   109    28    27    1
   110    28    31    1
   111    13    12    2
   112   170   171    1
   113   170   167    1
   114   126   128   ar
   115   126   127   ar
   116   169   168    2
   117    25    24    2
   118    23    24    1
   119   168   167    1
   120   128   130   ar
   121   171   173    1
   122    24    26   am
   123   136   137    1
   124    12    19   am
   125    12    11    1
   126   167   166    1
   127   156   155    1
   128   156   158    1
   129   127   129   ar
   130   144   142   ar
   131   144   146   ar
   132   142   141   ar
   133   155   152    1
   134   165   164    1
   135   165   159    1
   136   164   163    1
   137   130   131   ar
   138   137   140    1
   139   137   138    1
   140   187   185    1
   141    11    14    1
   142    11    10    1
   143   146   145   ar
   144    14    15    1
   145   129   131   ar
   146   163   160    1
   147   141   140    1
   148   141   143   ar
   149   147   138   am
   150   147   148    1
   151   151   152    1
   152   151   149   am
   153   181   182    1
   154   152   153    1
   155   138   139    2
   156   159   160    1
   157   159   153   am
   158    15    16    1
   159    16    17    1
   160   148   149    1
   161     4     3    2
   162   182   185    1
   163   182   183    1
   164   160   161    1
   165   153   154    2
   166   185   186    1
   167   145   143   ar
   168   149   150    2
   169    18    17    1
   170     8     7   ar
   171     3     2    1
   172   183   184    2
   173   161   162    2
   174     2     5    1
   175     2     1    1
   176     7     6    1
   177     7     9   ar
   178     5     6    1
