@<TRIPOS>MOLECULE
tmp/1gjwA01.pdb
 82 77 0 0 0
SMALL
GASTEIGER

@<TRIPOS>ATOM
      1  N        -30.9820   49.9870    0.5600 N.3   387  GLY387     -0.1210
      2  CA       -32.3690   50.4210    0.5040 C.3   387  GLY387      0.1956
      3  C        -33.2340   49.7410    1.5560 C.2   387  GLY387      0.2611
      4  O        -34.3070   50.2340    1.8960 O.2   387  GLY387     -0.2717
      5  N        -32.7780   48.6060    2.0840 N.am  388  HIS388     -0.1975
      6  CA       -33.5420   47.8880    3.1090 C.3   388  HIS388      0.1656
      7  C        -33.7570   48.7580    4.3490 C.2   388  HIS388      0.2291
      8  O        -34.7840   48.6380    5.0210 O.2   388  HIS388     -0.2864
      9  CB       -32.8060   46.6140    3.5440 C.3   388  HIS388      0.0771
     10  CG       -32.9660   45.4590    2.6120 C.ar  388  HIS388      0.0820
     11  ND1      -31.9060   44.8730    1.9540 N.ar  388  HIS388     -0.2267
     12  CD2      -34.0720   44.8040    2.1860 C.ar  388  HIS388      0.1154
     13  CE1      -32.3550   43.9150    1.1630 C.ar  388  HIS388      0.1986
     14  NE2      -33.6680   43.8530    1.2870 N.ar  388  HIS388     -0.2212
     15  N        -37.7710   56.4770    0.4140 N.3   395  LEU395     -0.1245
     16  CA       -37.4440   55.7180   -0.8060 C.3   395  LEU395      0.1561
     17  C        -38.4060   56.1540   -1.9270 C.2   395  LEU395      0.2260
     18  O        -38.0180   56.3360   -3.0820 O.2   395  LEU395     -0.2867
     19  CB       -37.5390   54.1970   -0.5370 C.3   395  LEU395      0.0270
     20  CG       -36.9790   53.1140   -1.4900 C.3   395  LEU395      0.0019
     21  CD1      -38.0840   52.5450   -2.3120 C.3   395  LEU395      0.0001
     22  CD2      -35.8930   53.6610   -2.3830 C.3   395  LEU395      0.0001
     23  N        -32.1910   47.5840   -7.5540 N.3   413  ALA413     -0.1231
     24  CA       -32.1540   47.2970   -6.1290 C.3   413  ALA413      0.1694
     25  C        -30.9470   46.4060   -5.7760 C.2   413  ALA413      0.2592
     26  O        -30.6330   45.4490   -6.4880 O.2   413  ALA413     -0.2718
     27  CB       -33.4580   46.6020   -5.6900 C.3   413  ALA413      0.0304
     28  N        -30.2760   46.7290   -4.6770 N.am  414  GLU414     -0.1966
     29  CA       -29.1570   45.9280   -4.2090 C.3   414  GLU414      0.1733
     30  C        -29.8730   44.8490   -3.4000 C.2   414  GLU414      0.2616
     31  O        -29.8930   44.8970   -2.1730 O.2   414  GLU414     -0.2715
     32  CB       -28.2640   46.7430   -3.2700 C.3   414  GLU414      0.0429
     33  CG       -26.9210   46.0800   -2.9830 C.3   414  GLU414      0.1163
     34  CD       -26.3330   46.4750   -1.6400 C.2   414  GLU414      0.3649
     35  OE1      -25.0990   46.3370   -1.4910 O.co2 414  GLU414     -0.2457
     36  OE2      -27.0970   46.9130   -0.7500 O.co2 414  GLU414     -0.2457
     37  N        -30.4980   43.9090   -4.0900 N.am  415  GLU415     -0.1977
     38  CA       -31.2600   42.8340   -3.4540 C.3   415  GLU415      0.1602
     39  C        -30.6480   41.5260   -3.9050 C.2   415  GLU415      0.2287
     40  O        -30.7510   41.1700   -5.0810 O.2   415  GLU415     -0.2864
     41  CB       -32.7330   42.9020   -3.9020 C.3   415  GLU415      0.0415
     42  CG       -33.6340   41.8080   -3.3310 C.3   415  GLU415      0.1163
     43  CD       -33.4600   41.6510   -1.8260 C.2   415  GLU415      0.3649
     44  OE1      -32.5970   40.8610   -1.3950 O.co2 415  GLU415     -0.2457
     45  OE2      -34.1690   42.3480   -1.0920 O.co2 415  GLU415     -0.2457
     46  N        -36.9500   38.0240   -3.0630 N.3   420  LYS420     -0.1245
     47  CA       -37.4830   39.3310   -2.7110 C.3   420  LYS420      0.1561
     48  C        -37.7990   40.2100   -3.9260 C.2   420  LYS420      0.2260
     49  O        -37.8680   41.4340   -3.8140 O.2   420  LYS420     -0.2867
     50  CB       -36.5250   40.0500   -1.7620 C.3   420  LYS420      0.0271
     51  CG       -36.4390   39.4030   -0.3820 C.3   420  LYS420      0.0035
     52  CD       -35.6700   40.2980    0.5770 C.3   420  LYS420      0.0206
     53  CE       -35.5090   39.6800    1.9690 C.3   420  LYS420      0.1093
     54  NZ       -34.5600   38.5350    1.9820 N.3   420  LYS420     -0.1314
     55  N        -41.2580   42.0230   -3.5540 N.3   423  ALA423     -0.1231
     56  CA       -41.1650   43.1640   -2.6570 C.3   423  ALA423      0.1694
     57  C        -40.4030   44.3270   -3.3060 C.2   423  ALA423      0.2592
     58  O        -40.7570   45.4870   -3.1080 O.2   423  ALA423     -0.2718
     59  CB       -40.4930   42.7460   -1.3570 C.3   423  ALA423      0.0304
     60  N        -39.3680   44.0160   -4.0860 N.am  424  SER424     -0.1952
     61  CA       -38.5720   45.0580   -4.7340 C.3   424  SER424      0.1924
     62  C        -39.4140   45.7750   -5.7780 C.2   424  SER424      0.2314
     63  O        -39.3270   46.9950   -5.9310 O.2   424  SER424     -0.2863
     64  CB       -37.3280   44.4530   -5.3780 C.3   424  SER424      0.2116
     65  OG       -36.5590   43.7490   -4.4230 O.3   424  SER424     -0.2180
     66  N        -41.6320   48.0200   -4.1430 N.3   427  ALA427     -0.1245
     67  CA       -40.9290   49.1740   -3.6060 C.3   427  ALA427      0.1562
     68  C        -40.6860   50.2430   -4.6750 C.2   427  ALA427      0.2260
     69  O        -40.3480   51.3780   -4.3460 O.2   427  ALA427     -0.2867
     70  CB       -39.5930   48.7340   -2.9970 C.3   427  ALA427      0.0290
     71  N        -38.6750   49.4740   -7.6430 N.3   429  TYR429     -0.1241
     72  CA       -37.4750   49.1440   -8.4100 C.3   429  TYR429      0.1605
     73  C        -37.8190   48.4830   -9.7420 C.2   429  TYR429      0.2264
     74  O        -38.9070   47.9360   -9.9140 O.2   429  TYR429     -0.2867
     75  CB       -36.5660   48.2030   -7.6150 C.3   429  TYR429      0.0534
     76  CG       -35.9720   48.8150   -6.3620 C.ar  429  TYR429     -0.0201
     77  CD1      -36.5830   48.6490   -5.1270 C.ar  429  TYR429     -0.0009
     78  CD2      -34.7810   49.5330   -6.4110 C.ar  429  TYR429     -0.0009
     79  CE1      -36.0220   49.1790   -3.9630 C.ar  429  TYR429      0.0417
     80  CE2      -34.2090   50.0690   -5.2510 C.ar  429  TYR429      0.0417
     81  CZ       -34.8440   49.8830   -4.0330 C.ar  429  TYR429      0.1957
     82  OH       -34.2920   50.4120   -2.9010 O.3   429  TYR429     -0.2866
@<TRIPOS>BOND
     1    74    73    2
     2    73    72    1
     3    72    71    1
     4    72    75    1
     5    75    76    1
     6    23    24    1
     7    26    25    2
     8    78    76   ar
     9    78    80   ar
    10    76    77   ar
    11    24    25    1
    12    24    27    1
    13    63    62    2
    14    62    61    1
    15    25    28   am
    16    64    61    1
    17    64    65    1
    18    80    81   ar
    19    77    79   ar
    20    40    39    2
    21    61    60    1
    22    28    29    1
    23    68    69    2
    24    68    67    1
    25    29    30    1
    26    29    32    1
    27    66    67    1
    28    37    38    1
    29    37    30   am
    30    60    57   am
    31    81    79   ar
    32    81    82    1
    33    48    49    2
    34    48    47    1
    35    39    38    1
    36    41    38    1
    37    41    42    1
    38    67    70    1
    39    55    56    1
    40    30    31    2
    41    42    43    1
    42    57    58    2
    43    57    56    1
    44    32    33    1
    45    18    17    2
    46    46    47    1
    47    33    34    1
    48    47    50    1
    49    56    59    1
    50    22    20    1
    51    21    20    1
    52    17    16    1
    53    43    44   ar
    54    43    45   ar
    55    50    51    1
    56    34    35   ar
    57    34    36   ar
    58    20    19    1
    59    16    19    1
    60    16    15    1
    61    51    52    1
    62     2     1    1
    63     2     3    1
    64    52    53    1
    65    13    14   ar
    66    13    11   ar
    67    14    12   ar
    68     3     4    2
    69     3     5   am
    70    11    10   ar
    71    53    54    1
    72     5     6    1
    73    12    10   ar
    74    10     9    1
    75     6     9    1
    76     6     7    1
    77     7     8    2
