@<TRIPOS>MOLECULE
tmp/1gjwA00.pdb
 149 140 0 0 0
SMALL
GASTEIGER

@<TRIPOS>ATOM
      1  N         -8.4580   50.6860    4.6720 N.3   151  LYS151     -0.1245
      2  CA        -7.9210   49.3620    4.9620 C.3   151  LYS151      0.1561
      3  C         -6.6570   49.1090    4.1600 C.2   151  LYS151      0.2260
      4  O         -5.9870   48.1110    4.3570 O.2   151  LYS151     -0.2867
      5  CB        -8.9160   48.2770    4.6010 C.3   151  LYS151      0.0271
      6  CG       -10.2750   48.4280    5.2200 C.3   151  LYS151      0.0035
      7  CD       -11.0850   47.1670    4.9380 C.3   151  LYS151      0.0206
      8  CE       -12.5340   47.3510    5.3230 C.3   151  LYS151      0.1093
      9  NZ       -13.3070   46.1210    5.0180 N.3   151  LYS151     -0.1314
     10  N        -12.2570   52.8880   -0.1690 N.3   156  SER156     -0.1217
     11  CA       -13.3630   52.1010   -0.6940 C.3   156  SER156      0.1889
     12  C        -14.2730   53.1080   -1.4250 C.2   156  SER156      0.2288
     13  O        -14.4660   54.2200   -0.9470 O.2   156  SER156     -0.2866
     14  CB       -14.1500   51.4790    0.4560 C.3   156  SER156      0.2089
     15  OG       -15.3370   50.8410   -0.0040 O.3   156  SER156     -0.2183
     16  N        -17.1950   53.0940   -1.4800 N.3   158  TYR158     -0.1241
     17  CA       -18.3850   53.2680   -0.6470 C.3   158  TYR158      0.1605
     18  C        -18.1900   54.2330    0.5600 C.2   158  TYR158      0.2264
     19  O        -19.1100   54.4810    1.3270 O.2   158  TYR158     -0.2867
     20  CB       -18.8790   51.8730   -0.1980 C.3   158  TYR158      0.0534
     21  CG       -19.3660   51.0330   -1.3810 C.ar  158  TYR158     -0.0201
     22  CD1      -20.6660   51.1840   -1.8800 C.ar  158  TYR158     -0.0009
     23  CD2      -18.4950   50.1680   -2.0620 C.ar  158  TYR158     -0.0009
     24  CE1      -21.0970   50.5020   -3.0320 C.ar  158  TYR158      0.0417
     25  CE2      -18.9190   49.4660   -3.2310 C.ar  158  TYR158      0.0417
     26  CZ       -20.2190   49.6480   -3.6970 C.ar  158  TYR158      0.1957
     27  OH       -20.6430   48.9750   -4.8180 O.3   158  TYR158     -0.2866
     28  N        -25.4010   55.1850   -2.1230 N.3   203  ILE203     -0.1245
     29  CA       -25.7350   54.5630   -0.8210 C.3   203  ILE203      0.1561
     30  C        -26.2780   55.6820    0.0690 C.2   203  ILE203      0.2260
     31  O        -25.5270   56.3210    0.8120 O.2   203  ILE203     -0.2867
     32  CB       -24.4990   53.9670   -0.0430 C.3   203  ILE203      0.0252
     33  CG1      -23.4890   53.3420   -0.9870 C.3   203  ILE203      0.0019
     34  CG2      -24.9700   52.9030    0.9340 C.3   203  ILE203      0.0019
     35  CD1      -22.6000   54.3530   -1.6330 C.3   203  ILE203      0.0001
     36  N        -25.6290   55.8120    4.4610 N.3   206  THR206     -0.1218
     37  CA       -24.3460   56.0700    5.1070 C.3   206  THR206      0.1862
     38  C        -23.5930   57.2990    4.5960 C.2   206  THR206      0.2287
     39  O        -24.0360   57.9660    3.6660 O.2   206  THR206     -0.2866
     40  CB       -23.3860   54.8420    4.9080 C.3   206  THR206      0.1770
     41  OG1      -23.0650   54.7480    3.5160 O.3   206  THR206     -0.2211
     42  CG2      -24.0590   53.5160    5.3540 C.3   206  THR206      0.0375
     43  N        -17.6640   48.7970   10.4950 N.3   315  TRP315     -0.1241
     44  CA       -17.3120   49.4690    9.2350 C.3   315  TRP315      0.1605
     45  C        -16.6650   50.8140    9.6130 C.2   315  TRP315      0.2264
     46  O        -17.3380   51.8270    9.7110 O.2   315  TRP315     -0.2867
     47  CB       -18.5790   49.6950    8.4000 C.3   315  TRP315      0.0550
     48  CG       -19.4780   48.4780    8.3480 C.ar  315  TRP315      0.0003
     49  CD1      -19.0930   47.1610    8.4160 C.ar  315  TRP315      0.0946
     50  CD2      -20.8960   48.4680    8.1340 C.ar  315  TRP315      0.0152
     51  NE1      -20.1870   46.3410    8.2550 N.ar  315  TRP315     -0.2442
     52  CE2      -21.3030   47.1130    8.0790 C.ar  315  TRP315      0.0810
     53  CE3      -21.8600   49.4750    7.9730 C.ar  315  TRP315      0.0012
     54  CZ2      -22.6480   46.7290    7.8650 C.ar  315  TRP315      0.0191
     55  CZ3      -23.1930   49.1070    7.7600 C.ar  315  TRP315      0.0001
     56  CH2      -23.5730   47.7380    7.7070 C.ar  315  TRP315      0.0015
     57  N        -14.8210   52.9590    8.0030 N.3   317  ASP317     -0.1225
     58  CA       -14.6840   54.0330    7.0450 C.3   317  ASP317      0.1805
     59  C        -15.9740   54.7390    6.7040 C.2   317  ASP317      0.2597
     60  O        -15.9800   55.6250    5.8430 O.2   317  ASP317     -0.2718
     61  CB       -13.9670   53.5570    5.7660 C.3   317  ASP317      0.1424
     62  CG       -14.6770   52.3590    5.0650 C.2   317  ASP317      0.3668
     63  OD1      -15.5130   51.6520    5.6620 O.co2 317  ASP317     -0.2456
     64  OD2      -14.3570   52.1170    3.8900 O.co2 317  ASP317     -0.2456
     65  N        -17.0520   54.3500    7.3800 N.am  318  VAL318     -0.1980
     66  CA       -18.3630   54.9680    7.1940 C.3   318  VAL318      0.1595
     67  C        -19.0580   55.1220    8.5280 C.2   318  VAL318      0.2287
     68  O        -18.6430   54.5380    9.5310 O.2   318  VAL318     -0.2864
     69  CB       -19.3340   54.1430    6.2930 C.3   318  VAL318      0.0276
     70  CG1      -18.8280   54.1160    4.8820 C.3   318  VAL318      0.0022
     71  CG2      -19.5460   52.7440    6.8640 C.3   318  VAL318      0.0022
     72  N        -28.0760   52.2030   -9.2840 N.3   383  ARG383     -0.1245
     73  CA       -28.2370   51.1470   -8.3050 C.3   383  ARG383      0.1563
     74  C        -28.2500   51.8680   -6.9490 C.2   383  ARG383      0.2260
     75  O        -27.4040   52.7400   -6.6800 O.2   383  ARG383     -0.2867
     76  CB       -27.0600   50.1700   -8.3540 C.3   383  ARG383      0.0307
     77  CG       -27.0440   49.1490   -7.1870 C.3   383  ARG383      0.0489
     78  CD       -25.8440   48.1990   -7.3000 C.3   383  ARG383      0.2205
     79  NE       -25.3580   47.7790   -5.9980 N.pl3 383  ARG383     -0.0865
     80  CZ       -24.5090   46.7640   -5.8210 C.cat 383  ARG383      0.5346
     81  NH1      -24.0610   46.0800   -6.8630 N.pl3 383  ARG383      0.1354
     82  NH2      -24.1190   46.4190   -4.6020 N.pl3 383  ARG383      0.1354
     83  N        -27.9610   51.3350   -2.9410 N.3   385  ASP385     -0.1225
     84  CA       -27.4500   50.4160   -1.9470 C.3   385  ASP385      0.1805
     85  C        -28.0280   50.6880   -0.5520 C.2   385  ASP385      0.2597
     86  O        -28.2600   51.8330   -0.1690 O.2   385  ASP385     -0.2718
     87  CB       -25.9230   50.5210   -1.9210 C.3   385  ASP385      0.1424
     88  CG       -25.2640   49.9270   -3.1690 C.2   385  ASP385      0.3668
     89  OD1      -24.0940   50.2700   -3.4430 O.co2 385  ASP385     -0.2456
     90  OD2      -25.8970   49.1220   -3.8670 O.co2 385  ASP385     -0.2456
     91  N        -28.2690   49.6050    0.1830 N.am  386  MET386     -0.1979
     92  CA       -28.7900   49.6570    1.5370 C.3   386  MET386      0.1605
     93  C        -30.2090   50.2260    1.6200 C.2   386  MET386      0.2287
     94  O        -30.5960   50.8500    2.6220 O.2   386  MET386     -0.2864
     95  CB       -27.8360   50.4380    2.4680 C.3   386  MET386      0.0413
     96  CG       -27.8570   49.9230    3.9220 C.3   386  MET386      0.0598
     97  SD       -26.6460   50.6240    5.0540 S.3   386  MET386     -0.1393
     98  CE       -25.0730   50.0890    4.2710 C.3   386  MET386      0.0692
     99  N        -30.2760   46.7290   -4.6770 N.3   414  GLU414     -0.1245
    100  CA       -29.1570   45.9280   -4.2090 C.3   414  GLU414      0.1567
    101  C        -29.8730   44.8490   -3.4000 C.2   414  GLU414      0.2260
    102  O        -29.8930   44.8970   -2.1730 O.2   414  GLU414     -0.2867
    103  CB       -28.2640   46.7430   -3.2700 C.3   414  GLU414      0.0388
    104  CG       -26.9210   46.0800   -2.9830 C.3   414  GLU414      0.1160
    105  CD       -26.3330   46.4750   -1.6400 C.2   414  GLU414      0.3649
    106  OE1      -25.0990   46.3370   -1.4910 O.co2 414  GLU414     -0.2457
    107  OE2      -27.0970   46.9130   -0.7500 O.co2 414  GLU414     -0.2457
    108  N        -17.9280   41.7990   -5.4340 N.3   468  ASP468     -0.1239
    109  CA       -17.9260   41.2740   -4.0670 C.3   468  ASP468      0.1674
    110  C        -17.7030   39.7750   -3.8620 C.2   468  ASP468      0.2266
    111  O        -17.6060   39.3100   -2.7280 O.2   468  ASP468     -0.2867
    112  CB       -19.2480   41.5990   -3.3740 C.3   468  ASP468      0.1410
    113  CG       -19.3900   43.0710   -3.0170 C.2   468  ASP468      0.3668
    114  OD1      -18.3710   43.6990   -2.6770 O.co2 468  ASP468     -0.2456
    115  OD2      -20.5310   43.5770   -3.0620 O.co2 468  ASP468     -0.2456
    116  N        -12.5570   42.0940   -3.8740 N.3   512  ASN512     -0.1240
    117  CA       -12.9690   42.2530   -2.5000 C.3   512  ASN512      0.1653
    118  C        -13.3700   40.8910   -1.8930 C.2   512  ASN512      0.2266
    119  O        -13.8730   40.0100   -2.5950 O.2   512  ASN512     -0.2867
    120  CB       -14.1480   43.2140   -2.4830 C.3   512  ASN512      0.1155
    121  CG       -14.6560   43.4760   -1.1060 C.2   512  ASN512      0.2627
    122  OD1      -13.8730   43.6960   -0.1760 O.2   512  ASN512     -0.2716
    123  ND2      -15.9780   43.4760   -0.9510 N.am  512  ASN512     -0.0877
    124  N        -15.8100   40.3120    0.1120 N.3   514  GLY514     -0.1225
    125  CA       -17.1150   40.5400    0.6990 C.3   514  GLY514      0.1811
    126  C        -18.0720   39.3860    0.8880 C.2   514  GLY514      0.2280
    127  O        -18.2150   38.8630    2.0000 O.2   514  GLY514     -0.2866
    128  N        -10.4760   46.9940   -4.0720 N.3   537  PHE537     -0.1227
    129  CA       -11.3330   47.8940   -3.2930 C.3   537  PHE537      0.1736
    130  C        -10.5520   48.7720   -2.3370 C.2   537  PHE537      0.2595
    131  O        -10.9700   49.9030   -2.0430 O.2   537  PHE537     -0.2718
    132  CB       -12.3430   47.1040   -2.4500 C.3   537  PHE537      0.0547
    133  CG       -13.6790   46.8880   -3.1170 C.ar  537  PHE537     -0.0202
    134  CD1      -13.7620   46.6120   -4.4840 C.ar  537  PHE537     -0.0042
    135  CD2      -14.8600   46.9650   -2.3710 C.ar  537  PHE537     -0.0042
    136  CE1      -15.0100   46.4160   -5.1060 C.ar  537  PHE537     -0.0003
    137  CE2      -16.1080   46.7780   -2.9770 C.ar  537  PHE537     -0.0003
    138  CZ       -16.1810   46.5010   -4.3450 C.ar  537  PHE537     -0.0000
    139  N         -9.4150   48.2490   -1.8740 N.am  538  PHE538     -0.1976
    140  CA        -8.6030   48.9260   -0.8880 C.3   538  PHE538      0.1639
    141  C         -7.1640   49.1840   -1.2420 C.2   538  PHE538      0.2290
    142  O         -6.4480   49.7520   -0.4450 O.2   538  PHE538     -0.2864
    143  CB        -8.6280   48.1290    0.4250 C.3   538  PHE538      0.0560
    144  CG        -9.9690   47.5430    0.7390 C.ar  538  PHE538     -0.0200
    145  CD1      -10.1840   46.1690    0.6240 C.ar  538  PHE538     -0.0042
    146  CD2      -11.0320   48.3680    1.1150 C.ar  538  PHE538     -0.0042
    147  CE1      -11.4540   45.6200    0.8780 C.ar  538  PHE538     -0.0003
    148  CE2      -12.3080   47.8420    1.3730 C.ar  538  PHE538     -0.0003
    149  CZ       -12.5250   46.4540    1.2500 C.ar  538  PHE538     -0.0000
@<TRIPOS>BOND
     1    72    73    1
     2    76    73    1
     3    76    77    1
     4    73    74    1
     5    78    77    1
     6    78    79    1
     7    74    75    2
     8    81    80    1
     9    79    80    2
    10    80    82    1
    11   108   109    1
    12   136   134   ar
    13   136   138   ar
    14    27    26    1
    15    99   100    1
    16   134   133   ar
    17   138   137   ar
    18   100   101    1
    19   100   103    1
    20   128   129    1
    21   109   110    1
    22   109   112    1
    23   116   117    1
    24    90    88   ar
    25   110   111    2
    26    26    25   ar
    27    26    24   ar
    28    89    88   ar
    29   101   102    2
    30   112   113    1
    31   129   132    1
    32   129   130    1
    33   103   104    1
    34    25    23   ar
    35    88    87    1
    36   133   132    1
    37   133   135   ar
    38   115   113   ar
    39    24    22   ar
    40   113   114   ar
    41   104   105    1
    42   137   135   ar
    43    83    84    1
    44   119   118    2
    45   117   120    1
    46   117   118    1
    47   120   121    1
    48   130   131    2
    49   130   139   am
    50    28    29    1
    51    23    21   ar
    52    84    87    1
    53    84    85    1
    54    22    21   ar
    55   139   140    1
    56   105   106   ar
    57   105   107   ar
    58    35    33    1
    59    16    17    1
    60    12    13    2
    61    12    11    1
    62    21    20    1
    63   141   140    1
    64   141   142    2
    65   121   123   am
    66   121   122    2
    67    33    32    1
    68   140   143    1
    69    29    32    1
    70    29    30    1
    71    11    10    1
    72    11    14    1
    73    17    20    1
    74    17    18    1
    75    85    86    2
    76    85    91   am
    77    32    34    1
    78    15    14    1
    79    30    31    2
    80   124   125    1
    81    91    92    1
    82   143   144    1
    83    18    19    2
    84   145   144   ar
    85   145   147   ar
    86   125   126    1
    87   144   146   ar
    88   147   149   ar
    89   126   127    2
    90   146   148   ar
    91   149   148   ar
    92    92    93    1
    93    92    95    1
    94    93    94    2
    95    95    96    1
    96    41    40    1
    97    39    38    2
    98    64    62   ar
    99    96    97    1
   100     3     4    2
   101     3     2    1
   102    98    97    1
   103    36    37    1
   104    38    37    1
   105     5     2    1
   106     5     6    1
   107     1     2    1
   108    70    69    1
   109    40    37    1
   110    40    42    1
   111     7     6    1
   112     7     8    1
   113     9     8    1
   114    62    63   ar
   115    62    61    1
   116    61    58    1
   117    60    59    2
   118    69    71    1
   119    69    66    1
   120    59    58    1
   121    59    65   am
   122    58    57    1
   123    66    65    1
   124    66    67    1
   125    56    55   ar
   126    56    54   ar
   127    55    53   ar
   128    54    52   ar
   129    53    50   ar
   130    52    50   ar
   131    52    51   ar
   132    50    48   ar
   133    51    49   ar
   134    48    47    1
   135    48    49   ar
   136    47    44    1
   137    67    68    2
   138    44    45    1
   139    44    43    1
   140    45    46    2
