@<TRIPOS>MOLECULE
tmp/1gkaA02.pdb
 87 86 0 0 0
SMALL
GASTEIGER

@<TRIPOS>ATOM
      1  N         50.1820   70.8100   10.2930 N.3    85  ASN85      -0.1226
      2  CA        48.9120   71.2420    9.6470 C.3    85  ASN85       0.1770
      3  C         48.4750   70.3210    8.5790 C.2    85  ASN85       0.2439
      4  O         49.2630   69.9570    7.7290 O.2    85  ASN85      -0.2733
      5  CB        49.0330   72.5770    9.0150 C.3    85  ASN85       0.1168
      6  CG        47.7500   72.9990    8.4000 C.2    85  ASN85       0.2627
      7  OD1       46.7870   73.3150    9.0940 O.2    85  ASN85      -0.2716
      8  ND2       47.7170   73.0220    7.0890 N.am   85  ASN85      -0.0877
      9  N         47.2060   70.0090    8.5160 N.am   86  PRO86      -0.2718
     10  CA        46.8750   69.0560    7.4630 C.3    86  PRO86       0.1535
     11  C         46.4660   69.4970    6.1110 C.2    86  PRO86       0.2598
     12  O         46.0170   68.6720    5.3400 O.2    86  PRO86      -0.2715
     13  CB        45.7870   68.2370    8.0930 C.3    86  PRO86       0.0310
     14  CG        45.0190   69.2810    8.7660 C.3    86  PRO86       0.0237
     15  CD        46.0930   70.1550    9.4410 C.3    86  PRO86       0.0939
     16  N         46.5960   70.7800    5.8250 N.am   87  PHE87      -0.1974
     17  CA        46.2160   71.3370    4.5470 C.3    87  PHE87       0.1639
     18  C         47.5060   71.8570    3.9820 C.2    87  PHE87       0.2290
     19  O         47.5560   72.7730    3.1450 O.2    87  PHE87      -0.2864
     20  CB        45.2550   72.4860    4.7560 C.3    87  PHE87       0.0560
     21  CG        43.9280   72.0780    5.2560 C.ar   87  PHE87      -0.0200
     22  CD1       43.0000   73.0430    5.6390 C.ar   87  PHE87      -0.0042
     23  CD2       43.5640   70.7490    5.2940 C.ar   87  PHE87      -0.0042
     24  CE1       41.7240   72.7130    6.0470 C.ar   87  PHE87      -0.0003
     25  CE2       42.2780   70.3920    5.7050 C.ar   87  PHE87      -0.0003
     26  CZ        41.3490   71.3960    6.0830 C.ar   87  PHE87      -0.0000
     27  N         49.7990   73.7890    5.3610 N.3    89  GLU89      -0.1245
     28  CA        50.3720   75.0860    5.7020 C.3    89  GLU89       0.1567
     29  C         51.6490   74.8570    6.4740 C.2    89  GLU89       0.2260
     30  O         51.8110   73.7830    7.0140 O.2    89  GLU89      -0.2867
     31  CB        49.3760   75.8360    6.5580 C.3    89  GLU89       0.0388
     32  CG        48.0390   75.9620    5.8990 C.3    89  GLU89       0.1160
     33  CD        47.8110   77.3400    5.2030 C.2    89  GLU89       0.3649
     34  OE1       48.8470   77.9910    4.8080 O.co2  89  GLU89      -0.2457
     35  OE2       46.5870   77.7570    5.0440 O.co2  89  GLU89      -0.2457
     36  N         52.9360   75.1820    9.5540 N.3    91  HIS91      -0.1241
     37  CA        52.8220   75.3830   10.9670 C.3    91  HIS91       0.1621
     38  C         52.0930   74.2010   11.5340 C.2    91  HIS91       0.2264
     39  O         51.4040   73.4890   10.7730 O.2    91  HIS91      -0.2867
     40  CB        52.0550   76.6460   11.1940 C.3    91  HIS91       0.0745
     41  CG        50.6100   76.5980   10.7550 C.ar   91  HIS91       0.0817
     42  ND1       50.0320   77.6120   10.0090 N.ar   91  HIS91      -0.2268
     43  CD2       49.5860   75.7930   11.1410 C.ar   91  HIS91       0.1154
     44  CE1       48.7220   77.4360    9.9750 C.ar   91  HIS91       0.1986
     45  NE2       48.4240   76.3430   10.6550 N.ar   91  HIS91      -0.2212
     46  N         49.1630   72.2280   13.8780 N.3    93  SER93      -0.1217
     47  CA        47.8320   72.5160   14.3940 C.3    93  SER93       0.1889
     48  C         47.7960   71.8160   15.7320 C.2    93  SER93       0.2288
     49  O         48.2610   70.7060   15.8030 O.2    93  SER93      -0.2866
     50  CB        46.7910   71.8650   13.5010 C.3    93  SER93       0.2089
     51  OG        46.7090   72.4660   12.2410 O.3    93  SER93      -0.2183
     52  N         38.1580   71.5470   18.6840 N.3   100  PHE100     -0.1227
     53  CA        38.5270   71.6720   17.2540 C.3   100  PHE100      0.1736
     54  C         39.9160   72.2540   17.2410 C.2   100  PHE100      0.2595
     55  O         40.1660   73.2220   17.9710 O.2   100  PHE100     -0.2718
     56  CB        37.6680   72.6940   16.4830 C.3   100  PHE100      0.0547
     57  CG        36.2660   72.2630   16.1930 C.ar  100  PHE100     -0.0202
     58  CD1       36.0000   71.0530   15.5870 C.ar  100  PHE100     -0.0042
     59  CD2       35.2210   73.0950   16.4840 C.ar  100  PHE100     -0.0042
     60  CE1       34.7200   70.6800   15.2750 C.ar  100  PHE100     -0.0003
     61  CE2       33.9680   72.7260   16.1730 C.ar  100  PHE100     -0.0003
     62  CZ        33.7190   71.5160   15.5710 C.ar  100  PHE100     -0.0000
     63  N         40.7810   71.7350   16.3870 N.am  101  ALA101     -0.1966
     64  CA        42.1570   72.1890   16.2820 C.3   101  ALA101      0.1728
     65  C         42.4480   73.6630   16.0600 C.2   101  ALA101      0.2616
     66  O         41.6080   74.3630   15.6080 O.2   101  ALA101     -0.2715
     67  CB        42.7510   71.4390   15.1940 C.3   101  ALA101      0.0334
     68  N         43.6220   74.1520   16.4090 N.am  102  ALA102     -0.1964
     69  CA        43.9560   75.5260   16.0400 C.3   102  ALA102      0.1713
     70  C         45.3760   75.5660   15.4830 C.2   102  ALA102      0.2458
     71  O         46.2030   74.6770   15.6430 O.2   102  ALA102     -0.2730
     72  CB        43.8490   76.4810   17.1550 C.3   102  ALA102      0.0333
     73  N         45.6740   76.5850   14.7620 N.am  103  PRO103     -0.2727
     74  CA        47.0230   76.6550   14.2280 C.3   103  PRO103      0.1402
     75  C         47.9540   77.0600   15.3830 C.2   103  PRO103      0.2269
     76  O         47.4660   77.6950   16.2910 O.2   103  PRO103     -0.2865
     77  CB        46.8910   77.7690   13.2150 C.3   103  PRO103      0.0296
     78  CG        45.8980   78.6630   13.9150 C.3   103  PRO103      0.0237
     79  CD        44.8540   77.6930   14.3130 C.3   103  PRO103      0.0939
     80  N         43.8790   83.5070   14.2010 N.3   121  ILE121     -0.1245
     81  CA        43.0550   83.1640   13.0170 C.3   121  ILE121      0.1561
     82  C         42.3910   84.4320   12.4750 C.2   121  ILE121      0.2260
     83  O         41.9680   85.2120   13.2920 O.2   121  ILE121     -0.2867
     84  CB        41.9890   82.1990   13.4100 C.3   121  ILE121      0.0252
     85  CG1       42.5760   80.8730   13.6290 C.3   121  ILE121      0.0019
     86  CG2       41.1750   81.8480   12.3420 C.3   121  ILE121      0.0019
     87  CD1       41.5500   79.9520   14.0940 C.3   121  ILE121      0.0001
@<TRIPOS>BOND
     1    19    18    2
     2    18    17    1
     3    17    20    1
     4    17    16    1
     5    20    21    1
     6    34    33   ar
     7    35    33   ar
     8    33    32    1
     9    21    23   ar
    10    21    22   ar
    11    23    25   ar
    12    12    11    2
    13    27    28    1
    14    22    24   ar
    15    28    29    1
    16    28    31    1
    17    25    26   ar
    18    16    11   am
    19    32    31    1
    20    24    26   ar
    21    11    10    1
    22    29    30    2
    23     8     6   am
    24    10    13    1
    25    10     9    1
    26     4     3    2
    27    13    14    1
    28     6     5    1
    29     6     7    2
    30     9     3   am
    31     9    15    1
    32     3     2    1
    33    14    15    1
    34     5     2    1
    35    36    37    1
    36     2     1    1
    37    44    42   ar
    38    44    45   ar
    39    42    41   ar
    40    45    43   ar
    41    41    43   ar
    42    41    40    1
    43    39    38    2
    44    37    40    1
    45    37    38    1
    46    51    50    1
    47    86    84    1
    48    82    81    1
    49    82    83    2
    50    81    84    1
    51    81    80    1
    52    77    78    1
    53    77    74    1
    54    84    85    1
    55    50    47    1
    56    85    87    1
    57    46    47    1
    58    78    79    1
    59    74    73    1
    60    74    75    1
    61    79    73    1
    62    47    48    1
    63    73    70   am
    64    67    64    1
    65    60    62   ar
    66    60    58   ar
    67    75    76    2
    68    70    71    2
    69    70    69    1
    70    62    61   ar
    71    58    57   ar
    72    66    65    2
    73    48    49    2
    74    69    68    1
    75    69    72    1
    76    65    64    1
    77    65    68   am
    78    61    59   ar
    79    57    56    1
    80    57    59   ar
    81    64    63    1
    82    63    54   am
    83    56    53    1
    84    54    53    1
    85    54    55    2
    86    53    52    1
