@<TRIPOS>MOLECULE
tmp/1gkaB00.pdb
 86 86 0 0 0
SMALL
GASTEIGER

@<TRIPOS>ATOM
      1  N         26.5450   96.6400   11.9360 N.3    86  PHE86      -0.1241
      2  CA        26.1700   96.6290   10.5070 C.3    86  PHE86       0.1605
      3  C         24.6890   96.8600   10.2390 C.2    86  PHE86       0.2264
      4  O         23.8110   96.6960   11.1260 O.2    86  PHE86      -0.2867
      5  CB        26.4700   95.2950    9.7940 C.3    86  PHE86       0.0534
      6  CG        27.6940   94.5740   10.2550 C.ar   86  PHE86      -0.0203
      7  CD1       27.6030   93.5830   11.2360 C.ar   86  PHE86      -0.0042
      8  CD2       28.9260   94.8030    9.6510 C.ar   86  PHE86      -0.0042
      9  CE1       28.7340   92.8070   11.6170 C.ar   86  PHE86      -0.0003
     10  CE2       30.0460   94.0530   10.0090 C.ar   86  PHE86      -0.0003
     11  CZ        29.9440   93.0460   11.0020 C.ar   86  PHE86      -0.0000
     12  N         22.1490   92.5160    7.8770 N.3    90  HIS90      -0.1226
     13  CA        23.2050   91.6020    8.2900 C.3    90  HIS90       0.1752
     14  C         22.9130   91.3550    9.7240 C.2    90  HIS90       0.2596
     15  O         23.3600   92.1140   10.5780 O.2    90  HIS90      -0.2718
     16  CB        24.5600   92.2680    8.1240 C.3    90  HIS90       0.0759
     17  CG        25.7200   91.4590    8.6220 C.ar   90  HIS90       0.0818
     18  ND1       26.9990   91.6340    8.1340 N.ar   90  HIS90      -0.2268
     19  CD2       25.8100   90.5170    9.5930 C.ar   90  HIS90       0.1154
     20  CE1       27.8230   90.8310    8.7900 C.ar   90  HIS90       0.1986
     21  NE2       27.1300   90.1440    9.6790 N.ar   90  HIS90      -0.2212
     22  N         22.1210   90.3270    9.9940 N.am   91  MET91      -0.1965
     23  CA        21.7610   90.0250   11.3630 C.3    91  MET91       0.1736
     24  C         22.6510   88.9420   11.9610 C.2    91  MET91       0.2616
     25  O         23.5290   88.4450   11.2950 O.2    91  MET91      -0.2715
     26  CB        20.2940   89.6430   11.4400 C.3    91  MET91       0.0427
     27  CG        19.3980   90.7800   11.0450 C.3    91  MET91       0.0599
     28  SD        17.6430   90.3360   11.0320 S.3    91  MET91      -0.1393
     29  CE        17.4920   89.2460    9.6070 C.3    91  MET91       0.0692
     30  N         22.4190   88.5700   13.2100 N.am   92  LEU92      -0.1977
     31  CA        23.2200   87.5750   13.8860 C.3    92  LEU92       0.1596
     32  C         22.2860   86.4570   14.4090 C.2    92  LEU92       0.2287
     33  O         21.1900   86.7410   14.7760 O.2    92  LEU92      -0.2864
     34  CB        23.9110   88.3460   14.9720 C.3    92  LEU92       0.0297
     35  CG        24.8570   87.8200   16.0110 C.3    92  LEU92       0.0022
     36  CD1       25.3280   89.0310   16.6190 C.3    92  LEU92       0.0001
     37  CD2       24.2640   86.9160   17.0650 C.3    92  LEU92       0.0001
     38  N         27.1180   78.0680   17.0050 N.3    99  PHE99      -0.1227
     39  CA        27.9540   79.3150   17.0620 C.3    99  PHE99       0.1736
     40  C         27.2540   80.6480   16.7820 C.2    99  PHE99       0.2595
     41  O         26.4100   80.6950   15.8860 O.2    99  PHE99      -0.2718
     42  CB        29.0420   79.2740   15.9940 C.3    99  PHE99       0.0547
     43  CG        30.1320   78.4760   16.3820 C.ar   99  PHE99      -0.0202
     44  CD1       29.9050   77.1290   16.6900 C.ar   99  PHE99      -0.0042
     45  CD2       31.3290   79.0570   16.6510 C.ar   99  PHE99      -0.0042
     46  CE1       30.8620   76.3900   17.2850 C.ar   99  PHE99      -0.0003
     47  CE2       32.3030   78.3510   17.2460 C.ar   99  PHE99      -0.0003
     48  CZ        32.0950   77.0170   17.5730 C.ar   99  PHE99      -0.0000
     49  N         27.5730   81.7520   17.4530 N.am  100  ALA100     -0.1966
     50  CA        26.8650   82.9340   16.9550 C.3   100  ALA100      0.1728
     51  C         27.2780   82.9310   15.4810 C.2   100  ALA100      0.2616
     52  O         28.4290   82.7380   15.1760 O.2   100  ALA100     -0.2715
     53  CB        27.3170   84.1870   17.6240 C.3   100  ALA100      0.0334
     54  N         26.3390   83.1030   14.5710 N.am  101  ALA101     -0.1964
     55  CA        26.6640   83.0800   13.1640 C.3   101  ALA101      0.1713
     56  C         25.9690   84.2030   12.4540 C.2   101  ALA101      0.2458
     57  O         24.9720   84.6870   12.9100 O.2   101  ALA101     -0.2730
     58  CB        26.2470   81.7540   12.5580 C.3   101  ALA101      0.0333
     59  N         26.4610   84.6080   11.2930 N.am  102  PRO102     -0.2727
     60  CA        25.7080   85.6930   10.7220 C.3   102  PRO102      0.1402
     61  C         24.5570   85.2010    9.8430 C.2   102  PRO102      0.2269
     62  O         24.5730   84.0760    9.4130 O.2   102  PRO102     -0.2865
     63  CB        26.7910   86.4630    9.9870 C.3   102  PRO102      0.0296
     64  CG        27.5940   85.4490    9.4960 C.3   102  PRO102      0.0237
     65  CD        27.7540   84.5030   10.6240 C.3   102  PRO102      0.0939
     66  N         28.0240   82.6120    6.5160 N.3   119  CYS119     -0.1221
     67  CA        29.3390   82.0210    6.4090 C.3   119  CYS119      0.1808
     68  C         30.4380   82.7700    7.1620 C.2   119  CYS119      0.2601
     69  O         30.6070   84.0010    7.0000 O.2   119  CYS119     -0.2717
     70  CB        29.6790   82.0650    4.9480 C.3   119  CYS119      0.0970
     71  SG        31.3140   81.5400    4.4140 S.3   119  CYS119     -0.0800
     72  N         31.2120   82.0420    7.9570 N.am  120  ILE120     -0.1965
     73  CA        32.3080   82.6620    8.6810 C.3   120  ILE120      0.1727
     74  C         33.6220   82.2520    8.0210 C.2   120  ILE120      0.2616
     75  O         33.8960   81.0500    7.9000 O.2   120  ILE120     -0.2715
     76  CB        32.3270   82.1620   10.0680 C.3   120  ILE120      0.0290
     77  CG1       31.1990   82.8070   10.8330 C.3   120  ILE120      0.0022
     78  CG2       33.6660   82.4080   10.6680 C.3   120  ILE120      0.0023
     79  CD1       30.8270   82.0340   12.0530 C.3   120  ILE120      0.0001
     80  N         34.4310   83.2170    7.5860 N.am  121  THR121     -0.1951
     81  CA        35.6910   82.8620    6.9640 C.3   121  THR121      0.1897
     82  C         36.6190   82.4520    8.0440 C.2   121  THR121      0.2313
     83  O         36.6140   83.0520    9.0910 O.2   121  THR121     -0.2863
     84  CB        36.4040   84.0200    6.2920 C.3   121  THR121      0.1794
     85  OG1       35.7640   84.4040    5.0480 O.3   121  THR121     -0.2208
     86  CG2       37.8610   83.5790    6.0220 C.3   121  THR121      0.0378
@<TRIPOS>BOND
     1    71    70    1
     2    70    67    1
     3    85    84    1
     4    86    84    1
     5    84    81    1
     6    67    66    1
     7    67    68    1
     8    81    80    1
     9    81    82    1
    10    69    68    2
    11    68    72   am
    12    80    74   am
    13    12    13    1
    14    75    74    2
    15    72    73    1
    16    74    73    1
    17    82    83    2
    18    16    13    1
    19    16    17    1
    20    18    17   ar
    21    18    20   ar
    22    13    14    1
    23    17    19   ar
    24    73    76    1
    25    20    21   ar
    26    62    61    2
    27    64    63    1
    28    64    65    1
    29    19    21   ar
    30    29    28    1
    31     8    10   ar
    32     8     6   ar
    33    14    22   am
    34    14    15    2
    35     5     6    1
    36     5     2    1
    37    61    60    1
    38    63    60    1
    39    22    23    1
    40    10    11   ar
    41    76    78    1
    42    76    77    1
    43     3     2    1
    44     3     4    2
    45     6     7   ar
    46     2     1    1
    47    65    59    1
    48    60    59    1
    49    77    79    1
    50    11     9   ar
    51    28    27    1
    52    27    26    1
    53     7     9   ar
    54    59    56   am
    55    25    24    2
    56    23    26    1
    57    23    24    1
    58    24    30   am
    59    56    57    2
    60    56    55    1
    61    58    55    1
    62    55    54    1
    63    30    31    1
    64    31    32    1
    65    31    34    1
    66    32    33    2
    67    54    51   am
    68    34    35    1
    69    52    51    2
    70    51    50    1
    71    41    40    2
    72    42    43    1
    73    42    39    1
    74    35    36    1
    75    35    37    1
    76    43    45   ar
    77    43    44   ar
    78    45    47   ar
    79    44    46   ar
    80    40    39    1
    81    40    49   am
    82    50    49    1
    83    50    53    1
    84    38    39    1
    85    47    48   ar
    86    46    48   ar
