@<TRIPOS>MOLECULE
tmp/1gkcA00.pdb
 153 153 0 0 0
SMALL
GASTEIGER

@<TRIPOS>ATOM
      1  N         70.9920   29.4220  122.9900 N.3    77  GLY77      -0.1210
      2  CA        71.4310   29.9040  121.6950 C.3    77  GLY77       0.1956
      3  C         70.4720   29.3950  120.6370 C.2    77  GLY77       0.2612
      4  O         69.2800   29.6930  120.6910 O.2    77  GLY77      -0.2717
      5  N         70.9870   28.6250  119.6840 N.am   78  LEU78      -0.1965
      6  CA        70.1660   28.0580  118.6220 C.3    78  LEU78       0.1728
      7  C         69.3940   26.8850  119.2200 C.2    78  LEU78       0.2616
      8  O         69.9960   25.9790  119.7750 O.2    78  LEU78      -0.2715
      9  CB        71.0570   27.5600  117.4830 C.3    78  LEU78       0.0311
     10  CG        70.3230   27.0680  116.2330 C.3    78  LEU78       0.0022
     11  CD1       69.6180   28.2480  115.5640 C.3    78  LEU78       0.0001
     12  CD2       71.3130   26.4090  115.2710 C.3    78  LEU78       0.0001
     13  N         68.0710   26.8810  119.0970 N.am   79  LEU79      -0.1963
     14  CA        67.2720   25.8000  119.6730 C.3    79  LEU79       0.1728
     15  C         67.0260   24.6380  118.7120 C.2    79  LEU79       0.2616
     16  O         66.9070   23.4770  119.1290 O.2    79  LEU79      -0.2715
     17  CB        65.9300   26.3490  120.1580 C.3    79  LEU79       0.0311
     18  CG        65.9810   27.5800  121.0770 C.3    79  LEU79       0.0022
     19  CD1       64.5650   27.9970  121.4470 C.3    79  LEU79       0.0001
     20  CD2       66.7910   27.2750  122.3290 C.3    79  LEU79       0.0001
     21  N         66.9560   24.9580  117.4260 N.am   80  ALA80      -0.1963
     22  CA        66.7030   23.9630  116.4000 C.3    80  ALA80       0.1728
     23  C         66.8240   24.6260  115.0390 C.2    80  ALA80       0.2616
     24  O         67.1100   25.8150  114.9430 O.2    80  ALA80      -0.2715
     25  CB        65.2970   23.3980  116.5750 C.3    80  ALA80       0.0334
     26  N         66.6270   23.8420  113.9880 N.am   81  HIS81      -0.1959
     27  CA        66.6560   24.3610  112.6360 C.3    81  HIS81       0.1787
     28  C         65.9820   23.3720  111.6990 C.2    81  HIS81       0.2620
     29  O         65.9850   22.1680  111.9560 O.2    81  HIS81      -0.2715
     30  CB        68.0990   24.7050  112.1910 C.3    81  HIS81       0.0785
     31  CG        69.0550   23.5500  112.1640 C.ar   81  HIS81       0.0821
     32  ND1       70.3690   23.6710  112.5670 N.ar   81  HIS81      -0.2267
     33  CD2       68.9200   22.2810  111.7120 C.ar   81  HIS81       0.1154
     34  CE1       71.0020   22.5310  112.3650 C.ar   81  HIS81       0.1986
     35  NE2       70.1450   21.6710  111.8460 N.ar   81  HIS81      -0.2212
     36  N         65.3670   23.8870  110.6370 N.am   82  ALA82      -0.1977
     37  CA        64.6720   23.0490  109.6590 C.3    82  ALA82       0.1597
     38  C         65.0520   23.4600  108.2420 C.2    82  ALA82       0.2287
     39  O         65.5470   24.5630  108.0260 O.2    82  ALA82      -0.2864
     40  CB        63.1630   23.1580  109.8530 C.3    82  ALA82       0.0319
     41  N         62.3010   24.9210  127.3280 N.3   109  TYR109     -0.1241
     42  CA        61.6370   25.4540  126.1410 C.3   109  TYR109      0.1605
     43  C         60.4740   24.5630  125.7140 C.2   109  TYR109      0.2264
     44  O         60.5520   23.3430  125.8120 O.2   109  TYR109     -0.2867
     45  CB        62.6460   25.5600  125.0000 C.3   109  TYR109      0.0534
     46  CG        63.7730   26.5340  125.2560 C.ar  109  TYR109     -0.0201
     47  CD1       63.5860   27.9050  125.0790 C.ar  109  TYR109     -0.0009
     48  CD2       65.0360   26.0840  125.6600 C.ar  109  TYR109     -0.0009
     49  CE1       64.6260   28.8070  125.2910 C.ar  109  TYR109      0.0417
     50  CE2       66.0910   26.9800  125.8780 C.ar  109  TYR109      0.0417
     51  CZ        65.8790   28.3390  125.6910 C.ar  109  TYR109      0.1957
     52  OH        66.9110   29.2290  125.8920 O.3   109  TYR109     -0.2866
     53  N         55.7560   24.5870  120.8370 N.3   113  LEU113     -0.1231
     54  CA        55.8920   25.8610  120.1480 C.3   113  LEU113      0.1693
     55  C         57.0840   25.9120  119.2020 C.2   113  LEU113      0.2591
     56  O         57.0020   26.5110  118.1320 O.2   113  LEU113     -0.2718
     57  CB        55.9980   27.0090  121.1550 C.3   113  LEU113      0.0284
     58  CG        54.7390   27.3660  121.9510 C.3   113  LEU113      0.0019
     59  CD1       55.0330   28.5320  122.9080 C.3   113  LEU113      0.0001
     60  CD2       53.6150   27.7340  120.9820 C.3   113  LEU113      0.0001
     61  N         58.1980   25.2990  119.5910 N.am  114  VAL114     -0.1980
     62  CA        59.3790   25.3090  118.7380 C.3   114  VAL114      0.1595
     63  C         59.1570   24.4100  117.5240 C.2   114  VAL114      0.2287
     64  O         59.6100   24.7150  116.4270 O.2   114  VAL114     -0.2864
     65  CB        60.6430   24.8550  119.5130 C.3   114  VAL114      0.0276
     66  CG1       61.8380   24.7500  118.5620 C.3   114  VAL114      0.0022
     67  CG2       60.9530   25.8670  120.6360 C.3   114  VAL114      0.0022
     68  N         57.1690   26.1420  114.8580 N.3   117  HIS117     -0.1226
     69  CA        58.0090   27.0940  114.1400 C.3   117  HIS117      0.1752
     70  C         58.8490   26.3710  113.0910 C.2   117  HIS117      0.2595
     71  O         58.8990   26.7850  111.9390 O.2   117  HIS117     -0.2718
     72  CB        58.9340   27.8120  115.1230 C.3   117  HIS117      0.0759
     73  CG        59.8000   28.8580  114.4900 C.ar  117  HIS117      0.0818
     74  ND1       59.4000   30.1690  114.3440 N.ar  117  HIS117     -0.2268
     75  CD2       61.0490   28.7880  113.9720 C.ar  117  HIS117      0.1154
     76  CE1       60.3670   30.8600  113.7670 C.ar  117  HIS117      0.1986
     77  NE2       61.3770   30.0450  113.5310 N.ar  117  HIS117     -0.2212
     78  N         59.5120   25.2920  113.4970 N.am  118  GLU118     -0.1979
     79  CA        60.3460   24.5230  112.5830 C.3   118  GLU118      0.1602
     80  C         59.5220   23.9520  111.4320 C.2   118  GLU118      0.2287
     81  O         59.9610   23.9720  110.2850 O.2   118  GLU118     -0.2864
     82  CB        61.0580   23.3740  113.3110 C.3   118  GLU118      0.0415
     83  CG        62.0290   23.8040  114.4100 C.3   118  GLU118      0.1163
     84  CD        62.7580   25.1000  114.0950 C.2   118  GLU118      0.3649
     85  OE1       63.3000   25.2340  112.9870 O.co2 118  GLU118     -0.2457
     86  OE2       62.7930   25.9840  114.9670 O.co2 118  GLU118     -0.2457
     87  N         59.0110   26.3530  108.6660 N.3   121  HIS121     -0.1241
     88  CA        60.1190   26.3820  107.7180 C.3   121  HIS121      0.1621
     89  C         60.0400   25.1950  106.7610 C.2   121  HIS121      0.2264
     90  O         60.1710   25.3520  105.5540 O.2   121  HIS121     -0.2867
     91  CB        61.4600   26.3170  108.4460 C.3   121  HIS121      0.0745
     92  CG        61.8590   27.6000  109.0950 C.ar  121  HIS121      0.0817
     93  ND1       61.7690   28.8160  108.4520 N.ar  121  HIS121     -0.2268
     94  CD2       62.3620   27.8590  110.3230 C.ar  121  HIS121      0.1154
     95  CE1       62.1970   29.7690  109.2580 C.ar  121  HIS121      0.1986
     96  NE2       62.5630   29.2140  110.3990 N.ar  121  HIS121     -0.2212
     97  N         61.1900   33.6870  107.8830 N.3   127  HIS127     -0.1241
     98  CA        60.9950   34.4180  109.1280 C.3   127  HIS127      0.1621
     99  C         60.1030   35.6340  108.9470 C.2   127  HIS127      0.2264
    100  O         60.0960   36.2570  107.8900 O.2   127  HIS127     -0.2867
    101  CB        62.3450   34.8430  109.6990 C.3   127  HIS127      0.0745
    102  CG        63.0560   33.7470  110.4300 C.ar  127  HIS127      0.0817
    103  ND1       64.4290   33.6600  110.4930 N.ar  127  HIS127     -0.2268
    104  CD2       62.5790   32.6920  111.1340 C.ar  127  HIS127      0.1154
    105  CE1       64.7680   32.5960  111.1990 C.ar  127  HIS127      0.1986
    106  NE2       63.6640   31.9920  111.5980 N.ar  127  HIS127     -0.2212
    107  N         54.3540   33.6250  115.0490 N.3   134  LEU134     -0.1245
    108  CA        55.0600   32.3990  115.3960 C.3   134  LEU134      0.1561
    109  C         56.3780   32.2810  114.6390 C.2   134  LEU134      0.2260
    110  O         57.3360   31.6990  115.1390 O.2   134  LEU134     -0.2867
    111  CB        54.1860   31.1830  115.0840 C.3   134  LEU134      0.0270
    112  CG        54.8190   29.7940  115.2550 C.3   134  LEU134      0.0019
    113  CD1       55.2050   29.5840  116.7040 C.3   134  LEU134      0.0001
    114  CD2       53.8510   28.7110  114.8020 C.3   134  LEU134      0.0001
    115  N         58.4500   34.5710  114.0220 N.3   136  TYR136     -0.1228
    116  CA        59.4330   35.5610  114.4430 C.3   136  TYR136      0.1721
    117  C         60.6790   34.7460  114.8120 C.2   136  TYR136      0.2437
    118  O         60.5830   33.7440  115.5150 O.2   136  TYR136     -0.2733
    119  CB        58.9210   36.3360  115.6530 C.3   136  TYR136      0.0547
    120  CG        59.7210   37.5780  115.9570 C.ar  136  TYR136     -0.0200
    121  CD1       59.7470   38.6540  115.0640 C.ar  136  TYR136     -0.0009
    122  CD2       60.4640   37.6740  117.1280 C.ar  136  TYR136     -0.0009
    123  CE1       60.4950   39.7910  115.3340 C.ar  136  TYR136      0.0417
    124  CE2       61.2150   38.8040  117.4090 C.ar  136  TYR136      0.0417
    125  CZ        61.2280   39.8580  116.5120 C.ar  136  TYR136      0.1957
    126  OH        61.9730   40.9760  116.8010 O.3   136  TYR136     -0.2866
    127  N         61.8630   35.1720  114.3470 N.am  137  PRO137     -0.2718
    128  CA        63.1480   34.5010  114.5910 C.3   137  PRO137      0.1535
    129  C         63.6240   34.3010  116.0280 C.2   137  PRO137      0.2598
    130  O         64.6490   33.6590  116.2580 O.2   137  PRO137     -0.2715
    131  CB        64.1290   35.3420  113.7730 C.3   137  PRO137      0.0310
    132  CG        63.5420   36.7030  113.8500 C.3   137  PRO137      0.0237
    133  CD        62.0720   36.4470  113.6340 C.3   137  PRO137      0.0939
    134  N         62.8700   34.8270  116.9860 N.am  138  MET138     -0.1964
    135  CA        63.2280   34.7320  118.3930 C.3   138  MET138      0.1736
    136  C         62.1810   33.9380  119.1710 C.2   138  MET138      0.2616
    137  O         60.9830   34.0620  118.9150 O.2   138  MET138     -0.2715
    138  CB        63.3510   36.1480  118.9610 C.3   138  MET138      0.0427
    139  CG        63.6710   36.2310  120.4330 C.3   138  MET138      0.0599
    140  SD        63.4790   37.9270  121.0340 S.3   138  MET138     -0.1393
    141  CE        61.8930   37.8420  121.8660 C.3   138  MET138      0.0692
    142  N         62.6260   33.1170  120.1140 N.am  139  TYR139     -0.1974
    143  CA        61.6990   32.3240  120.9130 C.3   139  TYR139      0.1639
    144  C         60.9640   33.1680  121.9500 C.2   139  TYR139      0.2290
    145  O         61.5680   34.0010  122.6160 O.2   139  TYR139     -0.2864
    146  CB        62.4410   31.2140  121.6590 C.3   139  TYR139      0.0560
    147  CG        61.5510   30.4250  122.5990 C.ar  139  TYR139     -0.0198
    148  CD1       60.7970   29.3440  122.1390 C.ar  139  TYR139     -0.0009
    149  CD2       61.4450   30.7690  123.9460 C.ar  139  TYR139     -0.0009
    150  CE1       59.9620   28.6230  122.9960 C.ar  139  TYR139      0.0417
    151  CE2       60.6120   30.0590  124.8110 C.ar  139  TYR139      0.0417
    152  CZ        59.8740   28.9870  124.3300 C.ar  139  TYR139      0.1957
    153  OH        59.0530   28.2780  125.1820 O.3   139  TYR139     -0.2866
@<TRIPOS>BOND
     1    90    89    2
     2    89    88    1
     3    88    91    1
     4    88    87    1
     5    97    98    1
     6   100    99    2
     7    39    38    2
     8    38    37    1
     9    91    92    1
    10    93    92   ar
    11    93    95   ar
    12    99    98    1
    13    92    94   ar
    14    98   101    1
    15    95    96   ar
    16    37    40    1
    17    37    36    1
    18   101   102    1
    19    81    80    2
    20    94    96   ar
    21   102   103   ar
    22   102   104   ar
    23   103   105   ar
    24    36    28   am
    25   104   106   ar
    26   105   106   ar
    27    80    79    1
    28    28    29    2
    29    28    27    1
    30    33    35   ar
    31    33    31   ar
    32    35    34   ar
    33    71    70    2
    34    31    30    1
    35    31    32   ar
    36    30    27    1
    37    34    32   ar
    38    79    82    1
    39    79    78    1
    40    27    26    1
    41    85    84   ar
    42    70    78   am
    43    70    69    1
    44    82    83    1
    45    77    76   ar
    46    77    75   ar
    47   133   132    1
    48   133   127    1
    49    76    74   ar
    50   131   132    1
    51   131   128    1
    52    75    73   ar
    53    26    23   am
    54   115   116    1
    55    84    83    1
    56    84    86   ar
    57    69    68    1
    58    69    72    1
    59    74    73   ar
    60   127   128    1
    61   127   117   am
    62   116   117    1
    63   116   119    1
    64    73    72    1
    65   128   129    1
    66   109   110    2
    67   109   108    1
    68   114   112    1
    69   117   118    2
    70    24    23    2
    71    23    22    1
    72   107   108    1
    73   121   123   ar
    74   121   120   ar
    75   111   112    1
    76   111   108    1
    77   112   113    1
    78    12    10    1
    79   123   125   ar
    80    11    10    1
    81   119   120    1
    82   120   122   ar
    83   129   130    2
    84   129   134   am
    85    10     9    1
    86    22    25    1
    87    22    21    1
    88    64    63    2
    89   125   126    1
    90   125   124   ar
    91   134   135    1
    92   122   124   ar
    93    21    15   am
    94     9     6    1
    95    63    62    1
    96    56    55    2
    97   135   138    1
    98   135   136    1
    99    66    65    1
   100     6     7    1
   101     6     5    1
   102    15    16    2
   103    15    14    1
   104    62    65    1
   105    62    61    1
   106   137   136    2
   107   138   139    1
   108    13     7   am
   109    13    14    1
   110   136   142   am
   111    55    61   am
   112    55    54    1
   113     7     8    2
   114    65    67    1
   115    14    17    1
   116     5     3   am
   117   142   143    1
   118    54    53    1
   119    54    57    1
   120    17    18    1
   121   139   140    1
   122     3     4    2
   123     3     2    1
   124   143   146    1
   125   143   144    1
   126    60    58    1
   127   140   141    1
   128    18    19    1
   129    18    20    1
   130    57    58    1
   131   146   147    1
   132     2     1    1
   133   144   145    2
   134    58    59    1
   135   148   147   ar
   136   148   150   ar
   137   147   149   ar
   138   150   152   ar
   139   149   151   ar
   140   152   151   ar
   141   152   153    1
   142    45    46    1
   143    45    42    1
   144    47    46   ar
   145    47    49   ar
   146    46    48   ar
   147    49    51   ar
   148    48    50   ar
   149    51    50   ar
   150    51    52    1
   151    43    44    2
   152    43    42    1
   153    42    41    1
