@<TRIPOS>MOLECULE
tmp/1gkdA00.pdb
 133 133 0 0 0
SMALL
GASTEIGER

@<TRIPOS>ATOM
      1  N         -1.1100   13.2690    8.3440 N.3    77  GLY77      -0.1210
      2  CA        -1.5470   12.8070    9.6450 C.3    77  GLY77       0.1956
      3  C         -0.9710   13.7400   10.6880 C.2    77  GLY77       0.2612
      4  O         -1.1350   14.9530   10.5810 O.2    77  GLY77      -0.2717
      5  N         -0.2930   13.1790   11.6860 N.am   78  LEU78      -0.1965
      6  CA         0.3120   13.9730   12.7510 C.3    78  LEU78       0.1728
      7  C          1.4520   14.8240   12.1940 C.2    78  LEU78       0.2616
      8  O          2.4440   14.2840   11.7260 O.2    78  LEU78      -0.2715
      9  CB         0.8610   13.0470   13.8330 C.3    78  LEU78       0.0311
     10  CG         1.4440   13.7220   15.0730 C.3    78  LEU78       0.0022
     11  CD1        0.3350   14.4980   15.7700 C.3    78  LEU78       0.0001
     12  CD2        2.0530   12.6730   16.0190 C.3    78  LEU78       0.0001
     13  N          1.3320   16.1480   12.2620 N.am   79  LEU79      -0.1963
     14  CA         2.3870   17.0120   11.7350 C.3    79  LEU79       0.1728
     15  C          3.5600   17.2390   12.6880 C.2    79  LEU79       0.2616
     16  O          4.7170   17.2950   12.2590 O.2    79  LEU79      -0.2715
     17  CB         1.7980   18.3640   11.3120 C.3    79  LEU79       0.0311
     18  CG         0.6830   18.2780   10.2610 C.3    79  LEU79       0.0022
     19  CD1        0.1280   19.6650    9.9600 C.3    79  LEU79       0.0001
     20  CD2        1.2340   17.6330    8.9890 C.3    79  LEU79       0.0001
     21  N          3.2620   17.3640   13.9760 N.am   80  ALA80      -0.1963
     22  CA         4.2810   17.6120   14.9860 C.3    80  ALA80       0.1728
     23  C          3.6450   17.5870   16.3680 C.2    80  ALA80       0.2616
     24  O          2.4190   17.4980   16.4920 O.2    80  ALA80      -0.2715
     25  CB         4.9330   18.9740   14.7400 C.3    80  ALA80       0.0334
     26  N          4.4690   17.6650   17.4080 N.am   81  HIS81      -0.1959
     27  CA         3.9470   17.6720   18.7740 C.3    81  HIS81       0.1787
     28  C          4.9170   18.3340   19.7420 C.2    81  HIS81       0.2620
     29  O          6.1000   18.4130   19.4700 O.2    81  HIS81      -0.2715
     30  CB         3.5970   16.2480   19.2250 C.3    81  HIS81       0.0785
     31  CG         4.7550   15.2990   19.2630 C.ar   81  HIS81       0.0821
     32  ND1        4.6060   13.9450   19.0500 N.ar   81  HIS81      -0.2267
     33  CD2        6.0640   15.4900   19.5560 C.ar   81  HIS81       0.1154
     34  CE1        5.7710   13.3440   19.2120 C.ar   81  HIS81       0.1986
     35  NE2        6.6720   14.2600   19.5180 N.ar   81  HIS81      -0.2212
     36  N          4.4070   18.8370   20.8600 N.am   82  ALA82      -0.1977
     37  CA         5.2580   19.4960   21.8500 C.3    82  ALA82       0.1597
     38  C          4.8170   19.1110   23.2530 C.2    82  ALA82       0.2287
     39  O          3.7440   18.5400   23.4310 O.2    82  ALA82      -0.2864
     40  CB         5.1970   21.0160   21.6720 C.3    82  ALA82       0.0319
     41  N          2.8730   26.1060   11.8050 N.3   114  VAL114     -0.1245
     42  CA         2.8970   24.9220   12.6630 C.3   114  VAL114      0.1561
     43  C          3.7710   25.1700   13.8980 C.2   114  VAL114      0.2260
     44  O          3.4300   24.7400   15.0020 O.2   114  VAL114     -0.2867
     45  CB         3.4100   23.6690   11.8830 C.3   114  VAL114      0.0252
     46  CG1        3.5550   22.4820   12.8160 C.3   114  VAL114      0.0019
     47  CG2        2.4290   23.3130   10.7640 C.3   114  VAL114      0.0019
     48  N          1.9910   27.2080   16.5460 N.3   117  HIS117     -0.1226
     49  CA         1.0690   26.3400   17.2830 C.3   117  HIS117      0.1752
     50  C          1.8070   25.4750   18.3130 C.2   117  HIS117      0.2595
     51  O          1.3610   25.3460   19.4540 O.2   117  HIS117     -0.2718
     52  CB         0.3160   25.4380   16.2960 C.3   117  HIS117      0.0759
     53  CG        -0.6670   24.5060   16.9400 C.ar  117  HIS117      0.0818
     54  ND1       -2.0090   24.8010   17.0580 N.ar  117  HIS117     -0.2268
     55  CD2       -0.5000   23.2880   17.5060 C.ar  117  HIS117      0.1154
     56  CE1       -2.6240   23.8050   17.6670 C.ar  117  HIS117      0.1986
     57  NE2       -1.7310   22.8740   17.9480 N.ar  117  HIS117     -0.2212
     58  N          2.9250   24.8690   17.9050 N.am  118  GLN118     -0.1979
     59  CA         3.7100   24.0340   18.8180 C.3   118  GLN118      0.1601
     60  C          4.2520   24.8610   19.9880 C.2   118  GLN118      0.2287
     61  O          4.2410   24.4070   21.1400 O.2   118  GLN118     -0.2864
     62  CB         4.9010   23.3770   18.0990 C.3   118  GLN118      0.0394
     63  CG         4.5450   22.5170   16.9030 C.3   118  GLN118      0.0908
     64  CD         3.4480   21.5140   17.2020 C.2   118  GLN118      0.2608
     65  OE1        2.3720   21.5460   16.5900 O.2   118  GLN118     -0.2717
     66  NE2        3.7080   20.6220   18.1420 N.am  118  GLN118     -0.0878
     67  N          1.8720   25.3660   22.8110 N.3   121  HIS121     -0.1241
     68  CA         1.8350   24.2710   23.7790 C.3   121  HIS121      0.1621
     69  C          3.0420   24.3210   24.7120 C.2   121  HIS121      0.2264
     70  O          2.9240   24.0660   25.9100 O.2   121  HIS121     -0.2867
     71  CB         1.8210   22.9200   23.0800 C.3   121  HIS121      0.0745
     72  CG         0.5100   22.5800   22.4540 C.ar  121  HIS121      0.0817
     73  ND1       -0.6770   22.6130   23.1530 N.ar  121  HIS121     -0.2268
     74  CD2        0.2010   22.1550   21.2060 C.ar  121  HIS121      0.1154
     75  CE1       -1.6610   22.2190   22.3640 C.ar  121  HIS121      0.1986
     76  NE2       -1.1540   21.9350   21.1780 N.ar  121  HIS121     -0.2212
     77  N         -5.5390   23.1960   23.6740 N.3   127  HIS127     -0.1241
     78  CA        -6.2530   23.3540   22.4110 C.3   127  HIS127      0.1621
     79  C         -7.4870   24.2490   22.5600 C.2   127  HIS127      0.2264
     80  O         -8.1650   24.2180   23.5850 O.2   127  HIS127     -0.2867
     81  CB        -6.6830   21.9840   21.8920 C.3   127  HIS127      0.0745
     82  CG        -5.6020   21.2270   21.1860 C.ar  127  HIS127      0.0817
     83  ND1       -5.6020   19.8530   21.0870 N.ar  127  HIS127     -0.2268
     84  CD2       -4.5190   21.6510   20.4920 C.ar  127  HIS127      0.1154
     85  CE1       -4.5680   19.4610   20.3650 C.ar  127  HIS127      0.1986
     86  NE2       -3.8940   20.5330   19.9910 N.ar  127  HIS127     -0.2212
     87  N         -5.5540   29.8990   16.3700 N.3   134  LEU134     -0.1245
     88  CA        -4.3200   29.2090   16.0180 C.3   134  LEU134      0.1561
     89  C         -4.1660   27.9100   16.8040 C.2   134  LEU134      0.2260
     90  O         -3.5770   26.9470   16.3150 O.2   134  LEU134     -0.2867
     91  CB        -3.1020   30.1040   16.2840 C.3   134  LEU134      0.0270
     92  CG        -1.7360   29.4640   15.9950 C.3   134  LEU134      0.0019
     93  CD1       -1.5810   29.2610   14.5100 C.3   134  LEU134      0.0001
     94  CD2       -0.6140   30.3470   16.5070 C.3   134  LEU134      0.0001
     95  N         -6.3660   25.8380   17.4400 N.3   136  TYR136     -0.1228
     96  CA        -7.3770   24.8740   17.0110 C.3   136  TYR136      0.1721
     97  C         -6.5650   23.6360   16.5860 C.2   136  TYR136      0.2437
     98  O         -5.5610   23.7550   15.8860 O.2   136  TYR136     -0.2733
     99  CB        -8.1870   25.4580   15.8470 C.3   136  TYR136      0.0547
    100  CG        -9.3590   24.6130   15.4130 C.ar  136  TYR136     -0.0200
    101  CD1      -10.3590   24.2480   16.3160 C.ar  136  TYR136     -0.0009
    102  CD2       -9.4560   24.1550   14.1030 C.ar  136  TYR136     -0.0009
    103  CE1      -11.4210   23.4410   15.9260 C.ar  136  TYR136      0.0417
    104  CE2      -10.5100   23.3500   13.7020 C.ar  136  TYR136      0.0417
    105  CZ       -11.4880   22.9920   14.6140 C.ar  136  TYR136      0.1957
    106  OH       -12.5160   22.1710   14.2130 O.3   136  TYR136     -0.2866
    107  N         -6.9810   22.4350   17.0210 N.am  137  PRO137     -0.2718
    108  CA        -6.3050   21.1630   16.7190 C.3   137  PRO137      0.1535
    109  C         -6.1450   20.7000   15.2620 C.2   137  PRO137      0.2598
    110  O         -5.4870   19.6910   15.0040 O.2   137  PRO137     -0.2715
    111  CB        -7.0840   20.1590   17.5700 C.3   137  PRO137      0.0310
    112  CG        -8.4540   20.7390   17.5840 C.3   137  PRO137      0.0237
    113  CD        -8.1940   22.1990   17.8230 C.3   137  PRO137      0.0939
    114  N         -6.7200   21.4390   14.3170 N.am  138  MET138     -0.1964
    115  CA        -6.6300   21.0850   12.9040 C.3   138  MET138      0.1736
    116  C         -5.7990   22.1110   12.1260 C.2   138  MET138      0.2616
    117  O         -5.9340   23.3180   12.3330 O.2   138  MET138     -0.2715
    118  CB        -8.0380   21.0000   12.3080 C.3   138  MET138      0.0427
    119  CG        -8.0850   20.7700   10.8010 C.3   138  MET138      0.0599
    120  SD        -9.7620   20.9640   10.0780 S.3   138  MET138     -0.1393
    121  CE        -9.6960   22.6690    9.4440 C.3   138  MET138      0.0692
    122  N         -4.9350   21.6330   11.2350 N.am  139  TYR139     -0.1974
    123  CA        -4.1150   22.5380   10.4380 C.3   139  TYR139      0.1639
    124  C         -4.9460   23.2570    9.3780 C.2   139  TYR139      0.2290
    125  O         -5.7600   22.6440    8.6920 O.2   139  TYR139     -0.2864
    126  CB        -2.9890   21.7830    9.7200 C.3   139  TYR139      0.0560
    127  CG        -2.2010   22.6730    8.7700 C.ar  139  TYR139     -0.0198
    128  CD1       -1.2380   23.5510    9.2540 C.ar  139  TYR139     -0.0009
    129  CD2       -2.4620   22.6790    7.3980 C.ar  139  TYR139     -0.0009
    130  CE1       -0.5530   24.4130    8.4090 C.ar  139  TYR139      0.0417
    131  CE2       -1.7790   23.5410    6.5370 C.ar  139  TYR139      0.0417
    132  CZ        -0.8220   24.4080    7.0540 C.ar  139  TYR139      0.1957
    133  OH        -0.1230   25.2670    6.2290 O.3   139  TYR139     -0.2866
@<TRIPOS>BOND
     1   133   132    1
     2   131   132   ar
     3   131   129   ar
     4   132   130   ar
     5   129   127   ar
     6     1     2    1
     7   130   128   ar
     8   125   124    2
     9   127   128   ar
    10   127   126    1
    11    20    18    1
    12   124   123    1
    13   121   120    1
    14     2     3    1
    15   126   123    1
    16    19    18    1
    17   120   119    1
    18    18    17    1
    19   123   122    1
    20     4     3    2
    21     3     5   am
    22    47    45    1
    23   119   118    1
    24   122   116   am
    25    17    14    1
    26     5     6    1
    27     8     7    2
    28    14    13    1
    29    14    15    1
    30    41    42    1
    31    45    42    1
    32    45    46    1
    33   116   117    2
    34   116   115    1
    35     7    13   am
    36     7     6    1
    37    16    15    2
    38   118   115    1
    39    42    43    1
    40    15    21   am
    41     6     9    1
    42   115   114    1
    43   104   102   ar
    44   104   105   ar
    45     9    10    1
    46    43    44    2
    47    21    22    1
    48   102   100   ar
    49   106   105    1
    50   114   109   am
    51    93    92    1
    52   105   103   ar
    53    25    22    1
    54    22    23    1
    55   110   109    2
    56    10    11    1
    57    10    12    1
    58   109   108    1
    59   100    99    1
    60   100   101   ar
    61    99    96    1
    62    98    97    2
    63   103   101   ar
    64    92    91    1
    65    92    94    1
    66    88    91    1
    67    88    87    1
    68    88    89    1
    69    52    53    1
    70    52    49    1
    71    90    89    2
    72    23    24    2
    73    23    26   am
    74    48    49    1
    75    97    96    1
    76    97   107   am
    77    65    64    2
    78   108   107    1
    79   108   111    1
    80    63    64    1
    81    63    62    1
    82    53    54   ar
    83    53    55   ar
    84    96    95    1
    85   107   113    1
    86    54    56   ar
    87    64    66   am
    88    49    50    1
    89    26    27    1
    90    55    57   ar
    91   111   112    1
    92   112   113    1
    93    56    57   ar
    94    58    50   am
    95    58    59    1
    96    62    59    1
    97    50    51    2
    98    27    30    1
    99    27    28    1
   100    59    60    1
   101    32    34   ar
   102    32    31   ar
   103    34    35   ar
   104    30    31    1
   105    31    33   ar
   106    29    28    2
   107    35    33   ar
   108    28    36   am
   109    60    61    2
   110    86    85   ar
   111    86    84   ar
   112    85    83   ar
   113    84    82   ar
   114    36    37    1
   115    83    82   ar
   116    76    74   ar
   117    76    75   ar
   118    82    81    1
   119    74    72   ar
   120    40    37    1
   121    37    38    1
   122    81    78    1
   123    75    73   ar
   124    78    79    1
   125    78    77    1
   126    72    71    1
   127    72    73   ar
   128    79    80    2
   129    67    68    1
   130    71    68    1
   131    38    39    2
   132    68    69    1
   133    69    70    2
