@<TRIPOS>MOLECULE
tmp/1gkiD00.pdb
 97 93 0 0 0
SMALL
GASTEIGER

@<TRIPOS>ATOM
      1  N        -23.9900   58.9030   78.8280 N.3    57  THR57      -0.1203
      2  CA       -23.0470   59.6740   78.0360 C.3    57  THR57       0.1994
      3  C        -23.2950   59.4780   76.5360 C.2    57  THR57       0.2618
      4  O        -23.3730   58.3470   76.0410 O.2    57  THR57      -0.2717
      5  CB       -21.5850   59.2930   78.3950 C.3    57  THR57       0.1784
      6  OG1      -20.6890   59.9790   77.5190 O.3    57  THR57      -0.2211
      7  CG2      -21.3620   57.7860   78.2730 C.3    57  THR57       0.0376
      8  N        -23.4500   60.5910   75.8240 N.am   58  GLY58      -0.1942
      9  CA       -23.6820   60.5400   74.3900 C.3    58  GLY58       0.2014
     10  C        -25.1240   60.3980   73.9390 C.2    58  GLY58       0.2640
     11  O        -25.3750   60.0370   72.7880 O.2    58  GLY58      -0.2714
     12  N        -26.0740   60.6960   74.8240 N.am   59  THR59      -0.1936
     13  CA       -27.4900   60.5790   74.4950 C.3    59  THR59       0.2028
     14  C        -28.1660   61.8870   74.0920 C.2    59  THR59       0.2643
     15  O        -29.2580   61.8660   73.5290 O.2    59  THR59      -0.2714
     16  CB       -28.2720   59.9760   75.6620 C.3    59  THR59       0.1808
     17  OG1      -28.1490   60.8180   76.8090 O.3    59  THR59      -0.2208
     18  CG2      -27.7270   58.6160   76.0020 C.3    59  THR59       0.0379
     19  N        -27.5410   63.0240   74.3860 N.am   60  GLY60      -0.1939
     20  CA       -28.1440   64.2880   74.0010 C.3    60  GLY60       0.2014
     21  C        -28.3720   65.3510   75.0640 C.2    60  GLY60       0.2639
     22  O        -29.0540   66.3400   74.7870 O.2    60  GLY60      -0.2714
     23  N        -27.8300   65.1710   76.2670 N.am   61  LYS61      -0.1963
     24  CA       -28.0070   66.1750   77.3160 C.3    61  LYS61       0.1728
     25  C        -27.5510   67.5350   76.7950 C.2    61  LYS61       0.2617
     26  O        -28.2390   68.5440   76.9540 O.2    61  LYS61      -0.2715
     27  CB       -27.1930   65.8180   78.5670 C.3    61  LYS61       0.0311
     28  CG       -27.6920   64.6040   79.3230 C.3    61  LYS61       0.0038
     29  CD       -26.8800   64.3290   80.5850 C.3    61  LYS61       0.0206
     30  CE       -25.4240   64.0070   80.2910 C.3    61  LYS61       0.1093
     31  NZ       -25.2620   62.8880   79.3320 N.3    61  LYS61      -0.1314
     32  N        -26.3850   67.5510   76.1610 N.am   62  SER62      -0.1936
     33  CA       -25.8290   68.7860   75.6270 C.3    62  SER62       0.2055
     34  C        -26.6870   69.4000   74.5240 C.2    62  SER62       0.2642
     35  O        -26.8510   70.6160   74.4670 O.2    62  SER62      -0.2714
     36  CB       -24.4090   68.5400   75.1190 C.3    62  SER62       0.2130
     37  OG       -23.5620   68.1380   76.1830 O.3    62  SER62      -0.2179
     38  N        -27.2210   68.5670   73.6380 N.am   63  VAL63      -0.1977
     39  CA       -28.0810   69.0660   72.5680 C.3    63  VAL63       0.1596
     40  C        -29.3040   69.7140   73.2030 C.2    63  VAL63       0.2287
     41  O        -29.6840   70.8300   72.8520 O.2    63  VAL63      -0.2864
     42  CB       -28.5650   67.9270   71.6400 C.3    63  VAL63       0.0276
     43  CG1      -29.7690   68.3870   70.8270 C.3    63  VAL63       0.0022
     44  CG2      -27.4500   67.5120   70.7040 C.3    63  VAL63       0.0022
     45  N        -28.4940   72.9890   74.9770 N.3    66  ARG66      -0.1245
     46  CA       -28.1390   74.0160   74.0050 C.3    66  ARG66       0.1563
     47  C        -29.4200   74.6080   73.4160 C.2    66  ARG66       0.2260
     48  O        -29.5410   75.8220   73.2490 O.2    66  ARG66      -0.2867
     49  CB       -27.2700   73.4190   72.8940 C.3    66  ARG66       0.0307
     50  CG       -26.2790   74.4060   72.2940 C.3    66  ARG66       0.0489
     51  CD       -25.4420   73.7830   71.1940 C.3    66  ARG66       0.2205
     52  NE       -24.7340   72.5990   71.6530 N.pl3  66  ARG66      -0.0865
     53  CZ       -24.7520   71.4240   71.0300 C.cat  66  ARG66       0.5346
     54  NH1      -25.4460   71.2710   69.9120 N.pl3  66  ARG66       0.1354
     55  NH2      -24.0790   70.3970   71.5320 N.pl3  66  ARG66       0.1354
     56  N        -30.0650   57.1050   71.0450 N.3   382  ASP382     -0.1225
     57  CA       -29.6470   58.4540   71.4140 C.3   382  ASP382      0.1805
     58  C        -30.6360   59.4870   70.8450 C.2   382  ASP382      0.2597
     59  O        -31.4500   59.1720   69.9770 O.2   382  ASP382     -0.2718
     60  CB       -28.2230   58.7330   70.9090 C.3   382  ASP382      0.1424
     61  CG       -27.1990   57.7200   71.4290 C.2   382  ASP382      0.3668
     62  OD1      -27.2070   57.4160   72.6420 O.co2 382  ASP382     -0.2456
     63  OD2      -26.3710   57.2310   70.6250 O.co2 382  ASP382     -0.2456
     64  N        -30.5800   60.7120   71.3580 N.am  383  LEU383     -0.1979
     65  CA       -31.4520   61.7890   70.9000 C.3   383  LEU383      0.1596
     66  C        -32.9400   61.4790   71.0150 C.2   383  LEU383      0.2287
     67  O        -33.7430   61.9330   70.2030 O.2   383  LEU383     -0.2864
     68  CB       -31.1000   62.1580   69.4600 C.3   383  LEU383      0.0297
     69  CG       -29.6700   62.6810   69.3140 C.3   383  LEU383      0.0022
     70  CD1      -29.3490   62.8700   67.8540 C.3   383  LEU383      0.0001
     71  CD2      -29.5150   63.9890   70.0800 C.3   383  LEU383      0.0001
     72  N        -31.0550   67.6210   66.3630 N.3   402  ILE402     -0.1231
     73  CA       -29.7470   68.2600   66.4280 C.3   402  ILE402      0.1692
     74  C        -29.7420   69.5400   65.6040 C.2   402  ILE402      0.2592
     75  O        -29.4870   69.5050   64.4000 O.2   402  ILE402     -0.2718
     76  CB       -28.6450   67.3340   65.8640 C.3   402  ILE402      0.0266
     77  CG1      -28.6240   66.0140   66.6330 C.3   402  ILE402      0.0019
     78  CG2      -27.2810   68.0170   65.9490 C.3   402  ILE402      0.0020
     79  CD1      -27.5860   65.0270   66.1100 C.3   402  ILE402      0.0001
     80  N        -30.0210   70.6720   66.2350 N.am  403  LYS403     -0.1966
     81  CA       -30.0100   71.9200   65.4900 C.3   403  LYS403      0.1728
     82  C        -28.5670   72.4070   65.3050 C.2   403  LYS403      0.2616
     83  O        -27.7110   72.2020   66.1720 O.2   403  LYS403     -0.2715
     84  CB       -30.8350   72.9930   66.2070 C.3   403  LYS403      0.0311
     85  CG       -31.0810   74.2170   65.3380 C.3   403  LYS403      0.0038
     86  CD       -31.9690   75.2460   66.0210 C.3   403  LYS403      0.0206
     87  CE       -32.7190   76.0960   64.9850 C.3   403  LYS403      0.1093
     88  NZ       -31.8160   76.7390   63.9760 N.3   403  LYS403     -0.1314
     89  N        -28.3030   73.0440   64.1660 N.am  404  GLN404     -0.1977
     90  CA       -26.9700   73.5700   63.8600 C.3   404  GLN404      0.1601
     91  C        -26.8620   75.0620   64.1760 C.2   404  GLN404      0.2287
     92  O        -27.7310   75.8480   63.7860 O.2   404  GLN404     -0.2864
     93  CB       -26.6320   73.3490   62.3780 C.3   404  GLN404      0.0394
     94  CG       -26.4190   71.8890   61.9900 C.3   404  GLN404      0.0908
     95  CD       -25.2540   71.2420   62.7460 C.2   404  GLN404      0.2608
     96  OE1      -24.9660   70.0480   62.5750 O.2   404  GLN404     -0.2717
     97  NE2      -24.5770   72.0310   63.5870 N.am  404  GLN404     -0.0878
@<TRIPOS>BOND
     1    94    93    1
     2    94    95    1
     3    93    90    1
     4    96    95    2
     5    95    97   am
     6    92    91    2
     7    90    89    1
     8    90    91    1
     9    88    87    1
    10    89    82   am
    11    75    74    2
    12    87    86    1
    13    82    81    1
    14    82    83    2
    15    85    86    1
    16    85    84    1
    17    81    84    1
    18    81    80    1
    19    74    80   am
    20    74    73    1
    21    76    78    1
    22    76    73    1
    23    76    77    1
    24    79    77    1
    25    72    73    1
    26    70    69    1
    27    69    68    1
    28    69    71    1
    29    68    65    1
    30    54    53    1
    31    59    58    2
    32    67    66    2
    33    63    61   ar
    34    44    42    1
    35    43    42    1
    36    58    64   am
    37    58    57    1
    38    65    66    1
    39    65    64    1
    40    60    57    1
    41    60    61    1
    42    53    55    1
    43    53    52    2
    44    56    57    1
    45    51    52    1
    46    51    50    1
    47    61    62   ar
    48    42    39    1
    49    50    49    1
    50    39    40    1
    51    39    38    1
    52    11    10    2
    53    41    40    2
    54    49    46    1
    55    48    47    2
    56    47    46    1
    57    15    14    2
    58    38    34   am
    59    10     9    1
    60    10    12   am
    61    20    19    1
    62    20    21    1
    63    46    45    1
    64    14    19   am
    65    14    13    1
    66     9     8    1
    67    35    34    2
    68    13    12    1
    69    13    16    1
    70    34    33    1
    71    22    21    2
    72    21    23   am
    73    36    33    1
    74    36    37    1
    75    33    32    1
    76    16    18    1
    77    16    17    1
    78     8     3   am
    79     4     3    2
    80    32    25   am
    81    23    24    1
    82     3     2    1
    83    25    26    2
    84    25    24    1
    85    24    27    1
    86     6     5    1
    87     2     5    1
    88     2     1    1
    89     7     5    1
    90    27    28    1
    91    28    29    1
    92    31    30    1
    93    30    29    1
