@<TRIPOS>MOLECULE
tmp/1gklA00.pdb
 88 83 0 0 0
SMALL
GASTEIGER

@<TRIPOS>ATOM
      1  N          9.0070  111.4120    7.3440 N.3    64  GLY64      -0.1225
      2  CA         7.5650  111.4290    7.1840 C.3    64  GLY64       0.1811
      3  C          7.1450  112.2510    5.9850 C.2    64  GLY64       0.2280
      4  O          7.7180  113.3030    5.6920 O.2    64  GLY64      -0.2866
      5  N         14.6280  111.5050   10.6750 N.3   152  ALA152     -0.1231
      6  CA        13.3620  111.8940   11.2940 C.3   152  ALA152      0.1694
      7  C         12.5400  110.6350   11.5570 C.2   152  ALA152      0.2591
      8  O         13.0070  109.7770   12.3090 O.2   152  ALA152     -0.2718
      9  CB        12.6570  112.9180   10.4410 C.3   152  ALA152      0.0304
     10  N         11.3600  110.4490   10.9690 N.am  153  MET153     -0.1979
     11  CA        10.6990  109.1530   11.1210 C.3   153  MET153      0.1605
     12  C         11.6110  108.0140   10.6290 C.2   153  MET153      0.2287
     13  O         11.4890  106.8950   11.1220 O.2   153  MET153     -0.2864
     14  CB         9.3400  109.1320   10.4330 C.3   153  MET153      0.0413
     15  CG         8.2580  109.9760   11.1780 C.3   153  MET153      0.0598
     16  SD         8.1300  109.7130   12.9440 S.3   153  MET153     -0.1393
     17  CE         7.6760  107.9790   12.9660 C.3   153  MET153      0.0692
     18  N         13.7090  107.0780   13.4920 N.3   156  LEU156     -0.1245
     19  CA        12.9590  106.1310   14.3000 C.3   156  LEU156      0.1561
     20  C         13.0860  104.7320   13.6830 C.2   156  LEU156      0.2260
     21  O         13.3310  103.7510   14.3720 O.2   156  LEU156     -0.2867
     22  CB        11.4930  106.5650   14.4280 C.3   156  LEU156      0.0270
     23  CG        10.6330  105.5770   15.2330 C.3   156  LEU156      0.0019
     24  CD1        9.7090  106.2700   16.2140 C.3   156  LEU156      0.0001
     25  CD2        9.9100  104.6130   14.3310 C.3   156  LEU156      0.0001
     26  N         18.4730  112.8810   13.3240 N.3   176  SER176     -0.1202
     27  CA        17.3190  113.7070   13.7100 C.3   176  SER176      0.2020
     28  C         16.0550  112.9000   14.0090 C.2   176  SER176      0.2619
     29  O         14.9580  113.2390   13.5790 O.2   176  SER176     -0.2717
     30  CB        17.0470  114.7850   12.6670 C.3   176  SER176      0.2103
     31  OG        18.1620  115.6470   12.5780 O.3   176  SER176     -0.2182
     32  N         16.2140  111.8420   14.7860 N.am  177  GLY177     -0.1942
     33  CA        15.0940  111.0650   15.2610 C.3   177  GLY177      0.2014
     34  C         15.5360  110.2680   16.4730 C.2   177  GLY177      0.2638
     35  O         16.6720  109.7960   16.5280 O.2   177  GLY177     -0.2714
     36  N         14.6470  110.1270   17.4520 N.am  178  ASP178     -0.1971
     37  CA        14.9190  109.3500   18.6470 C.3   178  ASP178      0.1709
     38  C         14.1530  108.0230   18.6110 C.2   178  ASP178      0.2293
     39  O         13.3070  107.7990   17.7460 O.2   178  ASP178     -0.2864
     40  CB        14.5960  110.1630   19.9190 C.3   178  ASP178      0.1436
     41  CG        13.1320  110.4970   20.0600 C.2   178  ASP178      0.3671
     42  OD1       12.5770  111.1830   19.1650 O.co2 178  ASP178     -0.2456
     43  OD2       12.4840  110.1240   21.0740 O.co2 178  ASP178     -0.2456
     44  N         11.4300  105.6850   19.9900 N.3   180  TRP180     -0.1241
     45  CA        10.1780  105.8850   20.7480 C.3   180  TRP180      0.1605
     46  C          9.7630  104.7980   21.7950 C.2   180  TRP180      0.2264
     47  O          8.6880  104.8780   22.4150 O.2   180  TRP180     -0.2867
     48  CB         9.0410  106.2720   19.7830 C.3   180  TRP180      0.0550
     49  CG         9.2300  107.6420   19.2080 C.ar  180  TRP180      0.0003
     50  CD1       10.2810  108.5070   19.4330 C.ar  180  TRP180      0.0946
     51  CD2        8.3730  108.3150   18.2880 C.ar  180  TRP180      0.0152
     52  NE1       10.1060  109.6700   18.7280 N.ar  180  TRP180     -0.2442
     53  CE2        8.9490  109.5740   18.0020 C.ar  180  TRP180      0.0810
     54  CE3        7.1710  107.9770   17.6590 C.ar  180  TRP180      0.0012
     55  CZ2        8.3650  110.4830   17.1260 C.ar  180  TRP180      0.0191
     56  CZ3        6.5950  108.8830   16.7970 C.ar  180  TRP180      0.0001
     57  CH2        7.1860  110.1170   16.5330 C.ar  180  TRP180      0.0015
     58  N         14.5320  120.2680   15.9460 N.3   217  ILE217     -0.1231
     59  CA        13.6360  119.8140   16.9970 C.3   217  ILE217      0.1692
     60  C         13.9620  118.4220   17.5260 C.2   217  ILE217      0.2591
     61  O         13.7100  118.1180   18.6770 O.2   217  ILE217     -0.2718
     62  CB        12.1600  119.8960   16.5390 C.3   217  ILE217      0.0266
     63  CG1       11.9300  119.0880   15.2510 C.3   217  ILE217      0.0019
     64  CG2       11.7500  121.3640   16.3900 C.3   217  ILE217      0.0020
     65  CD1       10.5490  119.2270   14.6520 C.3   217  ILE217      0.0001
     66  N         14.5290  117.5540   16.6990 N.am  218  ALA218     -0.1980
     67  CA        14.8720  116.2100   17.1550 C.3   218  ALA218      0.1597
     68  C         15.8770  116.1890   18.2950 C.2   218  ALA218      0.2287
     69  O         15.9510  115.2240   19.0500 O.2   218  ALA218     -0.2864
     70  CB        15.4080  115.3860   15.9850 C.3   218  ALA218      0.0319
     71  N         14.6200  115.3400   22.0330 N.3   221  ASN221     -0.1240
     72  CA        14.4650  113.9810   22.5120 C.3   221  ASN221      0.1653
     73  C         15.6850  113.1150   22.2340 C.2   221  ASN221      0.2266
     74  O         15.9450  112.1670   22.9600 O.2   221  ASN221     -0.2867
     75  CB        13.1600  113.3790   22.0300 C.3   221  ASN221      0.1155
     76  CG        11.9710  113.9210   22.8490 C.2   221  ASN221      0.2627
     77  OD1       12.0230  113.9330   24.0820 O.2   221  ASN221     -0.2716
     78  ND2       10.9640  114.3950   22.1860 N.am  221  ASN221     -0.0877
     79  N         15.8540  121.2790   10.9420 N.3   256  HIS256     -0.1241
     80  CA        15.2780  120.0140   10.5210 C.3   256  HIS256      0.1621
     81  C         14.9330  120.0500    9.0510 C.2   256  HIS256      0.2264
     82  O         13.7850  120.2530    8.6570 O.2   256  HIS256     -0.2867
     83  CB        14.0300  119.7550   11.3690 C.3   256  HIS256      0.0745
     84  CG        13.4830  118.3590   11.2860 C.ar  256  HIS256      0.0817
     85  ND1       13.8990  117.3420   12.1220 N.ar  256  HIS256     -0.2268
     86  CD2       12.5290  117.8260   10.4860 C.ar  256  HIS256      0.1154
     87  CE1       13.2080  116.2460   11.8410 C.ar  256  HIS256      0.1986
     88  NE2       12.3810  116.5090   10.8470 N.ar  256  HIS256     -0.2212
@<TRIPOS>BOND
     1     4     3    2
     2     3     2    1
     3     2     1    1
     4    82    81    2
     5    81    80    1
     6    14    11    1
     7    14    15    1
     8     9     6    1
     9    86    88   ar
    10    86    84   ar
    11    80    79    1
    12    80    83    1
    13    12    11    1
    14    12    13    2
    15     5     6    1
    16    88    87   ar
    17    10    11    1
    18    10     7   am
    19    15    16    1
    20    84    83    1
    21    84    85   ar
    22     6     7    1
    23     7     8    2
    24    87    85   ar
    25    31    30    1
    26    30    27    1
    27    16    17    1
    28    26    27    1
    29    18    19    1
    30    29    28    2
    31    20    19    1
    32    20    21    2
    33    27    28    1
    34    28    32   am
    35    19    22    1
    36    25    23    1
    37    22    23    1
    38    65    63    1
    39    32    33    1
    40    23    24    1
    41    63    62    1
    42    33    34    1
    43    58    59    1
    44    70    67    1
    45    64    62    1
    46    34    35    2
    47    34    36   am
    48    57    56   ar
    49    57    55   ar
    50    62    59    1
    51    66    67    1
    52    66    60   am
    53    56    54   ar
    54    59    60    1
    55    55    53   ar
    56    67    68    1
    57    36    37    1
    58    60    61    2
    59    54    51   ar
    60    39    38    2
    61    53    51   ar
    62    53    52   ar
    63    51    49   ar
    64    68    69    2
    65    38    37    1
    66    37    40    1
    67    52    50   ar
    68    42    41   ar
    69    49    50   ar
    70    49    48    1
    71    48    45    1
    72    40    41    1
    73    44    45    1
    74    41    43   ar
    75    45    46    1
    76    46    47    2
    77    75    72    1
    78    75    76    1
    79    71    72    1
    80    78    76   am
    81    73    72    1
    82    73    74    2
    83    76    77    2
