@<TRIPOS>MOLECULE
tmp/1gkmA00.pdb
 102 96 0 0 0
SMALL
GASTEIGER

@<TRIPOS>ATOM
      1  N         10.3790  -35.4250   20.1770 N.3    53  TYR53      -0.1241
      2  CA        10.4650  -34.5540   18.9880 C.3    53  TYR53       0.1605
      3  C         11.3280  -33.3370   19.2640 C.2    53  TYR53       0.2264
      4  O         11.0860  -32.5830   20.1950 O.2    53  TYR53      -0.2867
      5  CB         9.0540  -34.0470   18.5660 C.3    53  TYR53       0.0534
      6  CG         9.1720  -32.8680   17.5700 C.ar   53  TYR53      -0.0201
      7  CD1        9.4180  -33.2200   16.2440 C.ar   53  TYR53      -0.0009
      8  CD2        9.0980  -31.4810   17.7560 C.ar   53  TYR53      -0.0009
      9  CE1        9.5550  -32.2960   15.2450 C.ar   53  TYR53       0.0417
     10  CE2        9.2340  -30.5110   16.7990 C.ar   53  TYR53       0.0417
     11  CZ         9.4680  -30.9430   15.5140 C.ar   53  TYR53       0.1957
     12  OH         9.5970  -30.0310   14.5050 O.3    53  TYR53      -0.2866
     13  N         13.4090  -35.4860   11.5500 N.3    59  PHE59      -0.1241
     14  CA        12.3430  -34.6520   11.0360 C.3    59  PHE59       0.1605
     15  C         11.6030  -35.4760   10.0080 C.2    59  PHE59       0.2264
     16  O         12.0890  -36.5000    9.5010 O.2    59  PHE59      -0.2867
     17  CB        12.9390  -33.3370   10.4780 C.3    59  PHE59       0.0534
     18  CG        13.5500  -32.5630   11.6480 C.ar   59  PHE59      -0.0203
     19  CD1       12.7640  -31.8830   12.5680 C.ar   59  PHE59      -0.0042
     20  CD2       14.9250  -32.5650   11.7540 C.ar   59  PHE59      -0.0042
     21  CE1       13.3270  -31.1780   13.6300 C.ar   59  PHE59      -0.0003
     22  CE2       15.5100  -31.9100   12.8390 C.ar   59  PHE59      -0.0003
     23  CZ        14.7210  -31.2480   13.7690 C.ar   59  PHE59      -0.0000
     24  N         21.8100  -29.3690    9.9300 N.3    79  LEU79      -0.1245
     25  CA        20.8270  -28.3240   10.0720 C.3    79  LEU79       0.1561
     26  C         21.4580  -26.9460    9.9010 C.2    79  LEU79       0.2260
     27  O         20.9630  -26.1010    9.1270 O.2    79  LEU79      -0.2867
     28  CB        20.1700  -28.3780   11.4480 C.3    79  LEU79       0.0270
     29  CG        19.0980  -29.4470   11.7190 C.3    79  LEU79       0.0019
     30  CD1       18.6400  -29.5250   13.1450 C.3    79  LEU79       0.0001
     31  CD2       17.8630  -29.0670   10.8500 C.3    79  LEU79       0.0001
     32  N         20.5710  -24.6570    6.6190 N.3    83  HIS83      -0.1241
     33  CA        19.7040  -23.5400    6.9860 C.3    83  HIS83       0.1621
     34  C         20.3620  -22.2030    6.7370 C.2    83  HIS83       0.2264
     35  O         19.6500  -21.1840    6.7020 O.2    83  HIS83      -0.2867
     36  CB        19.2230  -23.6670    8.4400 C.3    83  HIS83       0.0745
     37  CG        18.1460  -24.7220    8.6200 C.ar   83  HIS83       0.0817
     38  ND1       18.1900  -25.9750    7.9930 N.ar   83  HIS83      -0.2268
     39  CD2       17.0010  -24.6710    9.2890 C.ar   83  HIS83       0.1154
     40  CE1       17.0600  -26.6320    8.3450 C.ar   83  HIS83       0.1986
     41  NE2       16.3370  -25.8600    9.1150 N.ar   83  HIS83      -0.2212
     42  N         15.4840  -18.5270   10.9190 N.3   143  LEU143     -0.1245
     43  CA        16.3530  -19.6940   10.7080 C.3   143  LEU143      0.1561
     44  C         17.6170  -19.3180    9.9930 C.2   143  LEU143      0.2260
     45  O         18.7310  -19.6720   10.3990 O.2   143  LEU143     -0.2867
     46  CB        15.5880  -20.7400    9.9480 C.3   143  LEU143      0.0270
     47  CG        14.3420  -21.3370   10.6730 C.3   143  LEU143      0.0019
     48  CD1       13.5330  -22.2150    9.7180 C.3   143  LEU143      0.0001
     49  CD2       14.7380  -22.1220   11.8980 C.3   143  LEU143      0.0001
     50  N         18.4560  -26.6930   16.8720 N.3   188  LEU188     -0.1245
     51  CA        17.1930  -25.9770   16.9490 C.3   188  LEU188      0.1561
     52  C         17.2550  -24.8350   17.9480 C.2   188  LEU188      0.2260
     53  O         16.6270  -23.7950   17.7080 O.2   188  LEU188     -0.2867
     54  CB        16.0340  -26.9140   17.3360 C.3   188  LEU188      0.0270
     55  CG        15.6190  -27.9130   16.2590 C.3   188  LEU188      0.0019
     56  CD1       14.5290  -28.8450   16.8350 C.3   188  LEU188      0.0001
     57  CD2       15.1320  -27.2220   15.0110 C.3   188  LEU188      0.0001
     58  N         16.1800  -21.6860   15.7990 N.3   192  ASN192     -0.1240
     59  CA        14.8070  -21.2170   15.9830 C.3   192  ASN192      0.1653
     60  C         14.8580  -19.9960   16.8740 C.2   192  ASN192      0.2266
     61  O         15.6040  -19.9360   17.8460 O.2   192  ASN192     -0.2867
     62  CB        13.9310  -22.2610   16.6840 C.3   192  ASN192      0.1155
     63  CG        13.4530  -23.4170   15.8820 C.2   192  ASN192      0.2627
     64  OD1       12.6350  -24.2070   16.3200 O.2   192  ASN192     -0.2716
     65  ND2       13.9080  -23.5990   14.7170 N.am  192  ASN192     -0.0877
     66  N         12.2390  -23.6180   20.1030 N.3   310  ASN310     -0.1240
     67  CA        11.2540  -24.6980   20.1490 C.3   310  ASN310      0.1653
     68  C         11.9570  -26.0070   19.8750 C.2   310  ASN310      0.2266
     69  O         12.9290  -25.9630   19.0870 O.2   310  ASN310     -0.2867
     70  CB        10.1870  -24.4690   19.0400 C.3   310  ASN310      0.1155
     71  CG         8.9750  -25.3590   19.2500 C.2   310  ASN310      0.2627
     72  OD1        8.2740  -25.1690   20.2640 O.2   310  ASN310     -0.2716
     73  ND2        8.7030  -26.3120   18.3790 N.am  310  ASN310     -0.0877
     74  N          8.5410  -19.1910   18.0220 N.3   326  PHE326     -0.1241
     75  CA         9.3630  -18.6740   16.9470 C.3   326  PHE326      0.1605
     76  C          8.5880  -17.7760   15.9810 C.2   326  PHE326      0.2264
     77  O          9.1840  -17.1360   15.1370 O.2   326  PHE326     -0.2867
     78  CB        10.0100  -19.8610   16.1910 C.3   326  PHE326      0.0534
     79  CG         8.9890  -20.9160   15.8060 C.ar  326  PHE326     -0.0203
     80  CD1        8.0590  -20.7200   14.7780 C.ar  326  PHE326     -0.0042
     81  CD2        8.9410  -22.1220   16.5130 C.ar  326  PHE326     -0.0042
     82  CE1        7.0850  -21.6410   14.4590 C.ar  326  PHE326     -0.0003
     83  CE2        7.9510  -23.0650   16.2150 C.ar  326  PHE326     -0.0003
     84  CZ         7.0380  -22.8330   15.2120 C.ar  326  PHE326     -0.0000
     85  N          3.2830  -27.2380    5.9280 N.3   410  GLN410     -0.1231
     86  CA         3.3010  -27.1550    7.4340 C.3   410  GLN410      0.1698
     87  C          3.5580  -25.8240    8.1440 C.2   410  GLN410      0.2592
     88  O          2.9840  -25.2640    9.2310 O.2   410  GLN410     -0.2718
     89  CB         4.4530  -28.1190    7.6580 C.3   410  GLN410      0.0381
     90  CG         4.6240  -28.6270    9.0280 C.3   410  GLN410      0.0905
     91  CD         3.4490  -28.9670    9.9110 C.2   410  GLN410      0.2608
     92  OE1        2.2480  -28.9240    9.6240 O.2   410  GLN410     -0.2717
     93  NE2        3.8530  -29.3140   11.1380 N.am  410  GLN410     -0.0878
     94  N          4.5080  -25.0750    7.4750 N.am  411  GLU411     -0.1979
     95  CA         4.9140  -23.6840    7.7310 C.3   411  GLU411      0.1602
     96  C          3.9110  -22.8730    6.9230 C.2   411  GLU411      0.2287
     97  O          4.1950  -22.2430    5.8850 O.2   411  GLU411     -0.2864
     98  CB         6.3080  -23.1050    7.3800 C.3   411  GLU411      0.0415
     99  CG         7.5950  -23.2550    8.1380 C.3   411  GLU411      0.1163
    100  CD         8.6450  -22.1620    8.2490 C.2   411  GLU411      0.3649
    101  OE1        8.7370  -21.0800    7.5240 O.co2 411  GLU411     -0.2457
    102  OE2        9.4690  -22.4180    9.1740 O.co2 411  GLU411     -0.2457
@<TRIPOS>BOND
     1    97    96    2
     2    85    86    1
     3    32    33    1
     4    35    34    2
     5    34    33    1
     6    96    95    1
     7    33    36    1
     8    98    95    1
     9    98    99    1
    10    86    89    1
    11    86    87    1
    12    94    95    1
    13    94    87   am
    14   101   100   ar
    15    89    90    1
    16    38    40   ar
    17    38    37   ar
    18    99   100    1
    19    87    88    2
    20   100   102   ar
    21    40    41   ar
    22    36    37    1
    23    37    39   ar
    24    90    91    1
    25    41    39   ar
    26    27    26    2
    27    16    15    2
    28    92    91    2
    29    48    47    1
    30    26    25    1
    31    91    93   am
    32    24    25    1
    33    46    47    1
    34    46    43    1
    35    44    45    2
    36    44    43    1
    37    15    14    1
    38    25    28    1
    39    17    14    1
    40    17    18    1
    41    47    49    1
    42    43    42    1
    43    31    29    1
    44    14    13    1
    45    28    29    1
    46    18    20   ar
    47    18    19   ar
    48    29    30    1
    49    20    22   ar
    50    19    21   ar
    51    22    23   ar
    52    21    23   ar
    53    82    80   ar
    54    82    84   ar
    55    12    11    1
    56    65    63   am
    57    80    79   ar
    58    57    55    1
    59    77    76    2
    60    84    83   ar
    61     9    11   ar
    62     9     7   ar
    63    11    10   ar
    64    58    59    1
    65    79    78    1
    66    79    81   ar
    67    63    64    2
    68    63    62    1
    69    76    75    1
    70    59    62    1
    71    59    60    1
    72    78    75    1
    73    83    81   ar
    74     7     6   ar
    75    55    56    1
    76    55    54    1
    77    10     8   ar
    78    50    51    1
    79    60    61    2
    80    75    74    1
    81    51    54    1
    82    51    52    1
    83     6     8   ar
    84     6     5    1
    85    53    52    2
    86    73    71   am
    87     5     2    1
    88     2     3    1
    89     2     1    1
    90    70    71    1
    91    70    67    1
    92    69    68    2
    93    71    72    2
    94     3     4    2
    95    68    67    1
    96    66    67    1
