@<TRIPOS>MOLECULE
tmp/1gksA00.pdb
 213 208 0 0 0
SMALL
GASTEIGER

@<TRIPOS>ATOM
      1  N          0.0790    5.8030    9.2810 N.3    10  THR10      -0.1218
      2  CA        -1.0270    4.9690    8.8620 C.3    10  THR10       0.1862
      3  C         -1.4520    4.1170   10.0520 C.2    10  THR10       0.2287
      4  O         -0.6450    3.8180   10.9280 O.2    10  THR10      -0.2866
      5  CB        -0.6120    4.1110    7.6600 C.3    10  THR10       0.1770
      6  OG1        0.7240    3.6530    7.7680 O.3    10  THR10      -0.2211
      7  CG2       -0.7510    4.9700    6.4060 C.3    10  THR10       0.0375
      8  N         -4.1440    0.7060   10.4930 N.3    12  PRO12      -0.2102
      9  CA        -2.8920    0.0340   10.8190 C.3    12  PRO12       0.1504
     10  C         -1.7310    0.5450    9.9600 C.2    12  PRO12       0.2576
     11  O         -1.9470    1.0220    8.8440 O.2    12  PRO12      -0.2718
     12  CB        -3.1410   -1.4540   10.5550 C.3    12  PRO12       0.0282
     13  CG        -4.6560   -1.5980   10.6910 C.3    12  PRO12       0.0208
     14  CD        -5.1650   -0.2670   10.1420 C.3    12  PRO12       0.0893
     15  N         -0.5100    0.4430   10.4810 N.am   13  THR13      -0.1939
     16  CA         0.7110    0.8510    9.8120 C.3    13  THR13       0.2028
     17  C          0.9980   -0.0940    8.6420 C.2    13  THR13       0.2642
     18  O          1.0720   -1.3070    8.8350 O.2    13  THR13      -0.2714
     19  CB         1.8350    0.8380   10.8610 C.3    13  THR13       0.1808
     20  OG1        1.5650   -0.1470   11.8430 O.3    13  THR13      -0.2208
     21  CG2        1.9240    2.1850   11.5790 C.3    13  THR13       0.0379
     22  N          1.1590    0.4470    7.4280 N.am   14  CYS14      -0.1967
     23  CA         1.3910   -0.3630    6.2290 C.3    14  CYS14       0.1712
     24  C          2.6450   -1.2250    6.4010 C.2    14  CYS14       0.2296
     25  O          2.6320   -2.4290    6.1290 O.2    14  CYS14      -0.2864
     26  CB         1.5400    0.5140    4.9750 C.3    14  CYS14       0.0983
     27  SG         0.4450    1.9420    4.7730 S.3    14  CYS14      -0.0798
     28  N          4.2180   -2.5940    8.9210 N.3    16  SER16      -0.1202
     29  CA         3.9960   -3.7880    9.7170 C.3    16  SER16       0.2020
     30  C          3.6410   -5.0180    8.8800 C.2    16  SER16       0.2619
     31  O          3.9740   -6.1300    9.2880 O.2    16  SER16      -0.2717
     32  CB         2.8810   -3.4840   10.7170 C.3    16  SER16       0.2103
     33  OG         3.1970   -2.2770   11.3870 O.3    16  SER16      -0.2182
     34  N          2.9610   -4.8320    7.7430 N.am   17  CYS17      -0.1955
     35  CA         2.5840   -5.9240    6.8610 C.3    17  CYS17       0.1843
     36  C          3.4730   -5.9670    5.6220 C.2    17  CYS17       0.2625
     37  O          4.0910   -6.9930    5.3380 O.2    17  CYS17      -0.2714
     38  CB         1.1210   -5.7870    6.4440 C.3    17  CYS17       0.0997
     39  SG        -0.0640   -6.2680    7.7260 S.3    17  CYS17      -0.0797
     40  N          3.5270   -4.8630    4.8750 N.am   18  HIS18      -0.1973
     41  CA         4.2110   -4.7980    3.5870 C.3    18  HIS18       0.1656
     42  C          5.7310   -4.9060    3.6760 C.2    18  HIS18       0.2291
     43  O          6.3530   -5.3790    2.7280 O.2    18  HIS18      -0.2864
     44  CB         3.7990   -3.5080    2.8800 C.3    18  HIS18       0.0771
     45  CG         2.4380   -3.6470    2.2620 C.ar   18  HIS18       0.0820
     46  ND1        2.2690   -4.1470    0.9830 N.ar   18  HIS18      -0.2267
     47  CD2        1.1700   -3.4320    2.7420 C.ar   18  HIS18       0.1154
     48  CE1        0.9520   -4.1590    0.7330 C.ar   18  HIS18       0.1986
     49  NE2        0.2250   -3.7650    1.7770 N.ar   18  HIS18      -0.2212
     50  N          3.4690   -9.8010    4.9660 N.3    22  VAL22      -0.1231
     51  CA         2.5000  -10.5570    5.7560 C.3    22  VAL22       0.1692
     52  C          1.3820  -11.0530    4.8390 C.2    22  VAL22       0.2592
     53  O          0.8800  -10.2960    4.0100 O.2    22  VAL22      -0.2718
     54  CB         1.9440   -9.6910    6.8980 C.3    22  VAL22       0.0266
     55  CG1        0.7840  -10.3730    7.6370 C.3    22  VAL22       0.0020
     56  CG2        3.0550   -9.4090    7.9150 C.3    22  VAL22       0.0020
     57  N          1.0280  -12.3350    4.9700 N.am   23  ALA23      -0.1966
     58  CA         0.0050  -12.9980    4.1700 C.3    23  ALA23       0.1728
     59  C          0.2410  -12.7930    2.6660 C.2    23  ALA23       0.2617
     60  O         -0.7090  -12.7560    1.8890 O.2    23  ALA23      -0.2715
     61  CB        -1.3800  -12.5010    4.6000 C.3    23  ALA23       0.0334
     62  N          1.5050  -12.6710    2.2480 N.am   24  GLY24      -0.1940
     63  CA         1.8490  -12.4870    0.8500 C.3    24  GLY24       0.2014
     64  C          1.5350  -11.0790    0.3470 C.2    24  GLY24       0.2639
     65  O          1.3650  -10.8920   -0.8560 O.2    24  GLY24      -0.2714
     66  N          1.4620  -10.0820    1.2400 N.am   25  ALA25      -0.1963
     67  CA         1.2590   -8.7010    0.8220 C.3    25  ALA25       0.1713
     68  C          2.3660   -8.3280   -0.1690 C.2    25  ALA25       0.2458
     69  O          3.5210   -8.6760    0.0780 O.2    25  ALA25      -0.2730
     70  CB         1.3080   -7.7670    2.0350 C.3    25  ALA25       0.0333
     71  N          2.0540   -7.6410   -1.2800 N.am   26  PRO26      -0.2727
     72  CA         3.0480   -7.2730   -2.2690 C.3    26  PRO26       0.1402
     73  C          4.0920   -6.3750   -1.6010 C.2    26  PRO26       0.2269
     74  O          3.7540   -5.3290   -1.0440 O.2    26  PRO26      -0.2865
     75  CB         2.2670   -6.6030   -3.4020 C.3    26  PRO26       0.0296
     76  CG         1.0330   -6.0390   -2.7020 C.3    26  PRO26       0.0237
     77  CD         0.7560   -7.0970   -1.6320 C.3    26  PRO26       0.0939
     78  N          3.6910   -6.6410   -8.0840 N.3    34  TRP34      -0.1241
     79  CA         2.7810   -5.5930   -8.5240 C.3    34  TRP34       0.1605
     80  C          2.4150   -5.7240  -10.0000 C.2    34  TRP34       0.2264
     81  O          1.3100   -5.3430  -10.3720 O.2    34  TRP34      -0.2867
     82  CB         3.4290   -4.2390   -8.2380 C.3    34  TRP34       0.0550
     83  CG         3.8020   -4.0360   -6.8010 C.ar   34  TRP34       0.0003
     84  CD1        4.9680   -4.4130   -6.2390 C.ar   34  TRP34       0.0946
     85  CD2        3.0180   -3.4530   -5.7230 C.ar   34  TRP34       0.0152
     86  NE1        4.9730   -4.1130   -4.8940 N.ar   34  TRP34      -0.2442
     87  CE2        3.8030   -3.4710   -4.5290 C.ar   34  TRP34       0.0810
     88  CE3        1.7170   -2.9160   -5.6370 C.ar   34  TRP34       0.0012
     89  CZ2        3.3280   -2.9470   -3.3150 C.ar   34  TRP34       0.0191
     90  CZ3        1.2200   -2.4200   -4.4210 C.ar   34  TRP34       0.0001
     91  CH2        2.0240   -2.4210   -3.2660 C.ar   34  TRP34       0.0015
     92  N         -1.0300   -6.7980  -10.7100 N.3    37  ARG37      -0.1231
     93  CA        -2.0600   -5.9600  -10.1110 C.3    37  ARG37       0.1679
     94  C         -2.3000   -4.7200  -10.9810 C.2    37  ARG37       0.2434
     95  O         -1.3630   -4.2700  -11.6430 O.2    37  ARG37      -0.2733
     96  CB        -1.6070   -5.5150   -8.7120 C.3    37  ARG37       0.0321
     97  CG        -1.3040   -6.7140   -7.8090 C.3    37  ARG37       0.0489
     98  CD        -0.8110   -6.2560   -6.4360 C.3    37  ARG37       0.2205
     99  NE        -0.4570   -7.4220   -5.6210 N.pl3  37  ARG37      -0.0865
    100  CZ        -1.3190   -8.1380   -4.8830 C.cat  37  ARG37       0.5346
    101  NH1       -2.6020   -7.7820   -4.7510 N.pl3  37  ARG37       0.1354
    102  NH2       -0.9050   -9.2480   -4.2680 N.pl3  37  ARG37       0.1354
    103  N         -3.5160   -4.1380  -10.9890 N.am   38  PRO38      -0.2729
    104  CA        -3.7860   -2.8770  -11.6710 C.3    38  PRO38       0.1401
    105  C         -2.9380   -1.7860  -11.0030 C.2    38  PRO38       0.2269
    106  O         -3.3870   -1.0980  -10.0930 O.2    38  PRO38      -0.2865
    107  CB        -5.2960   -2.6250  -11.5310 C.3    38  PRO38       0.0296
    108  CG        -5.8660   -4.0100  -11.2330 C.3    38  PRO38       0.0237
    109  CD        -4.7480   -4.6750  -10.4310 C.3    38  PRO38       0.0939
    110  N         -6.4940    3.0550   -9.0030 N.3    43  GLU43      -0.1231
    111  CA        -7.1980    1.7900   -8.8600 C.3    43  GLU43       0.1699
    112  C         -6.7770    1.1510   -7.5370 C.2    43  GLU43       0.2592
    113  O         -7.6300    0.8180   -6.7170 O.2    43  GLU43      -0.2718
    114  CB        -6.8820    0.8630  -10.0440 C.3    43  GLU43       0.0402
    115  CG        -7.3520    1.4510  -11.3830 C.3    43  GLU43       0.1161
    116  CD        -8.8700    1.5930  -11.4510 C.2    43  GLU43       0.3649
    117  OE1       -9.5430    0.5480  -11.3190 O.co2  43  GLU43      -0.2457
    118  OE2       -9.3270    2.7410  -11.6380 O.co2  43  GLU43      -0.2457
    119  N         -5.4650    1.0020   -7.3110 N.am   44  LEU44      -0.1980
    120  CA        -4.9050    0.4180   -6.1100 C.3    44  LEU44       0.1596
    121  C         -5.5330    1.0070   -4.8430 C.2    44  LEU44       0.2287
    122  O         -5.8110    0.2880   -3.8790 O.2    44  LEU44      -0.2864
    123  CB        -3.4020    0.7020   -6.1130 C.3    44  LEU44       0.0297
    124  CG        -2.5350   -0.0710   -7.1190 C.3    44  LEU44       0.0022
    125  CD1       -1.0620    0.1930   -6.7910 C.3    44  LEU44       0.0001
    126  CD2       -2.7570   -1.5870   -7.0910 C.3    44  LEU44       0.0001
    127  N         -8.8300   -0.6970   -3.9600 N.3    47  SER47      -0.1202
    128  CA        -8.5080   -1.9670   -3.3530 C.3    47  SER47       0.2020
    129  C         -8.1190   -1.7590   -1.8910 C.2    47  SER47       0.2619
    130  O         -8.5810   -2.4660   -1.0020 O.2    47  SER47      -0.2717
    131  CB        -7.3400   -2.5610   -4.1360 C.3    47  SER47       0.2103
    132  OG        -7.4250   -2.2400   -5.5110 O.3    47  SER47      -0.2182
    133  N         -7.2660   -0.7650   -1.6490 N.am   48  THR48      -0.1952
    134  CA        -6.8110   -0.4310   -0.3090 C.3    48  THR48       0.1897
    135  C         -7.9870    0.0060    0.5730 C.2    48  THR48       0.2313
    136  O         -8.1520   -0.5120    1.6770 O.2    48  THR48      -0.2863
    137  CB        -5.7100    0.6360   -0.3760 C.3    48  THR48       0.1794
    138  OG1       -4.7200    0.2620   -1.3150 O.3    48  THR48      -0.2208
    139  CG2       -5.0280    0.7790    0.9860 C.3    48  THR48       0.0378
    140  N         -8.3030   -6.0870    0.9050 N.3    52  LYS52      -0.1231
    141  CA        -7.9670   -7.1510   -0.0350 C.3    52  LYS52       0.1693
    142  C         -7.2570   -8.2790    0.7130 C.2    52  LYS52       0.2593
    143  O         -6.2200   -8.0590    1.3380 O.2    52  LYS52      -0.2718
    144  CB        -7.0890   -6.6020   -1.1730 C.3    52  LYS52       0.0285
    145  CG        -6.9930   -7.6050   -2.3310 C.3    52  LYS52       0.0035
    146  CD        -6.1560   -7.0420   -3.4890 C.3    52  LYS52       0.0206
    147  CE        -6.2900   -7.9030   -4.7520 C.3    52  LYS52       0.1093
    148  NZ        -5.9110   -9.3090   -4.5180 N.3    52  LYS52      -0.1314
    149  N         -7.8120   -9.4920    0.6530 N.am   53  GLY53      -0.1942
    150  CA        -7.2410  -10.6320    1.3460 C.3    53  GLY53       0.2014
    151  C         -7.1580  -10.3270    2.8380 C.2    53  GLY53       0.2639
    152  O         -8.1740  -10.1060    3.4910 O.2    53  GLY53      -0.2714
    153  N         -5.9360  -10.2960    3.3630 N.am   54  ALA54      -0.1963
    154  CA        -5.6820   -9.9850    4.7610 C.3    54  ALA54       0.1728
    155  C         -5.8070   -8.4840    5.0420 C.2    54  ALA54       0.2616
    156  O         -6.0560   -8.1090    6.1850 O.2    54  ALA54      -0.2715
    157  CB        -4.2820  -10.4750    5.1410 C.3    54  ALA54       0.0334
    158  N         -5.6120   -7.6210    4.0370 N.am   55  MET55      -0.1964
    159  CA        -5.6470   -6.1750    4.2190 C.3    55  MET55       0.1722
    160  C         -7.0520   -5.7120    4.6070 C.2    55  MET55       0.2458
    161  O         -7.9610   -5.8540    3.7850 O.2    55  MET55      -0.2730
    162  CB        -5.2190   -5.4900    2.9200 C.3    55  MET55       0.0427
    163  CG        -5.0780   -3.9760    3.0860 C.3    55  MET55       0.0599
    164  SD        -4.0720   -3.2170    1.7960 S.3    55  MET55      -0.1393
    165  CE        -4.9800   -3.6070    0.2810 C.3    55  MET55       0.0692
    166  N         -7.2520   -5.1500    5.8140 N.am   56  PRO56      -0.2727
    167  CA        -8.5450   -4.6320    6.2260 C.3    56  PRO56       0.1402
    168  C         -8.9560   -3.4390    5.3630 C.2    56  PRO56       0.2269
    169  O         -8.1330   -2.8380    4.6740 O.2    56  PRO56      -0.2865
    170  CB        -8.3890   -4.1900    7.6880 C.3    56  PRO56       0.0296
    171  CG        -7.1400   -4.9260    8.1660 C.3    56  PRO56       0.0237
    172  CD        -6.2930   -5.0010    6.8990 C.3    56  PRO56       0.0939
    173  N         -9.6670    0.3020    4.5760 N.3    58  TYR58      -0.1241
    174  CA        -9.1130    1.5620    5.0630 C.3    58  TYR58       0.1605
    175  C        -10.1160    2.7150    5.0360 C.2    58  TYR58       0.2264
    176  O         -9.8480    3.7410    5.6630 O.2    58  TYR58      -0.2867
    177  CB        -7.8680    1.9260    4.2490 C.3    58  TYR58       0.0534
    178  CG        -6.6180    1.3700    4.8720 C.ar   58  TYR58      -0.0201
    179  CD1       -6.0650    2.0540    5.9650 C.ar   58  TYR58      -0.0009
    180  CD2       -6.1540    0.0910    4.5230 C.ar   58  TYR58      -0.0009
    181  CE1       -4.9960    1.4910    6.6790 C.ar   58  TYR58       0.0417
    182  CE2       -5.0830   -0.4750    5.2390 C.ar   58  TYR58       0.0417
    183  CZ        -4.5060    0.2250    6.3150 C.ar   58  TYR58       0.1957
    184  OH        -3.4770   -0.3310    7.0130 O.3    58  TYR58      -0.2866
    185  N         -3.6060    7.4500    1.5370 N.3    67  LEU67      -0.1245
    186  CA        -3.4190    6.1900    0.8500 C.3    67  LEU67       0.1561
    187  C         -2.5920    6.4060   -0.4070 C.2    67  LEU67       0.2260
    188  O         -1.5310    5.8180   -0.5530 O.2    67  LEU67      -0.2867
    189  CB        -4.7810    5.6090    0.4770 C.3    67  LEU67       0.0270
    190  CG        -5.6360    5.1960    1.6810 C.3    67  LEU67       0.0019
    191  CD1       -6.9250    4.5510    1.1900 C.3    67  LEU67       0.0001
    192  CD2       -4.9030    4.1910    2.5550 C.3    67  LEU67       0.0001
    193  N          0.9440    7.0860    0.1990 N.3    70  ALA70      -0.1231
    194  CA         1.6460    5.8910    0.6500 C.3    70  ALA70       0.1694
    195  C          1.8880    4.9450   -0.5290 C.2    70  ALA70       0.2591
    196  O          2.9720    4.3910   -0.6780 O.2    70  ALA70      -0.2718
    197  CB         0.8310    5.1890    1.7370 C.3    70  ALA70       0.0304
    198  N          0.8780    4.7590   -1.3770 N.am   71  ILE71      -0.1980
    199  CA         0.9130    3.8600   -2.5160 C.3    71  ILE71       0.1595
    200  C          1.9740    4.3280   -3.5140 C.2    71  ILE71       0.2287
    201  O          2.8040    3.5250   -3.9340 O.2    71  ILE71      -0.2864
    202  CB        -0.5000    3.7590   -3.1200 C.3    71  ILE71       0.0276
    203  CG1       -1.4260    3.0260   -2.1290 C.3    71  ILE71       0.0022
    204  CG2       -0.4740    2.9830   -4.4410 C.3    71  ILE71       0.0022
    205  CD1       -2.9090    3.1700   -2.4770 C.3    71  ILE71       0.0001
    206  N          5.1980    3.4360   -2.0830 N.3    74  MET74      -0.1245
    207  CA         5.4450    2.0030   -2.2140 C.3    74  MET74       0.1570
    208  C          5.9760    1.7260   -3.6250 C.2    74  MET74       0.2261
    209  O          7.0910    1.2350   -3.8120 O.2    74  MET74      -0.2867
    210  CB         4.1620    1.1930   -1.9700 C.3    74  MET74       0.0387
    211  CG         3.7480    1.2320   -0.5000 C.3    74  MET74       0.0595
    212  SD         2.0040    0.8470   -0.1910 S.3    74  MET74      -0.1393
    213  CE         2.1000   -0.9140    0.1760 C.3    74  MET74       0.0692
@<TRIPOS>BOND
     1   104   107    1
     2   104   105    1
     3   104   103    1
     4    95    94    2
     5   118   116   ar
     6   107   108    1
     7   116   115    1
     8   116   117   ar
     9   115   114    1
    10   108   109    1
    11   105   106    2
    12   103    94   am
    13   103   109    1
    14    94    93    1
    15    92    93    1
    16    81    80    2
    17    93    96    1
    18   114   111    1
    19    80    79    1
    20   110   111    1
    21   111   112    1
    22    96    97    1
    23    79    82    1
    24    79    78    1
    25    82    83    1
    26    97    98    1
    27   112   119   am
    28   112   113    2
    29   119   120    1
    30   124   126    1
    31   124   125    1
    32   124   123    1
    33    83    84   ar
    34    83    85   ar
    35    98    99    1
    36    84    86   ar
    37   123   120    1
    38   120   121    1
    39    85    88   ar
    40    85    87   ar
    41    88    90   ar
    42    99   100    2
    43   132   131    1
    44    86    87   ar
    45   100   101    1
    46   100   102    1
    47   121   122    2
    48   147   148    1
    49   147   146    1
    50    87    89   ar
    51   204   202    1
    52    90    91   ar
    53   131   128    1
    54   127   128    1
    55   201   200    2
    56   209   208    2
    57   208   207    1
    58   200   199    1
    59   146   145    1
    60    75    76    1
    61    75    72    1
    62   128   129    1
    63    89    91   ar
    64   202   199    1
    65   202   203    1
    66    76    77    1
    67   199   198    1
    68   205   203    1
    69   145   144    1
    70    72    73    1
    71    72    71    1
    72   207   206    1
    73   207   210    1
    74   210   211    1
    75   129   133   am
    76   129   130    2
    77   133   134    1
    78    77    71    1
    79    73    74    2
    80   198   195   am
    81   138   137    1
    82    71    68   am
    83   144   141    1
    84    65    64    2
    85   196   195    2
    86   188   187    2
    87   195   194    1
    88   211   212    1
    89   187   186    1
    90   137   134    1
    91   137   139    1
    92   134   135    1
    93   212   213    1
    94    68    69    2
    95    68    67    1
    96   141   142    1
    97   141   140    1
    98   193   194    1
    99   165   164    1
   100    64    63    1
   101    64    66   am
   102   189   186    1
   103   189   190    1
   104   135   136    2
   105   194   197    1
   106   149   142   am
   107   149   150    1
   108   142   143    2
   109    48    46   ar
   110    48    49   ar
   111    67    66    1
   112    67    70    1
   113    63    62    1
   114   186   185    1
   115    46    45   ar
   116   191   190    1
   117   150   151    1
   118   190   192    1
   119    49    47   ar
   120   164   163    1
   121    60    59    2
   122    62    59   am
   123    45    47   ar
   124    45    44    1
   125    59    58    1
   126    43    42    2
   127   151   153   am
   128   151   152    2
   129    44    41    1
   130   162   163    1
   131   162   159    1
   132   153   154    1
   133    41    42    1
   134    41    40    1
   135   161   160    2
   136    53    52    2
   137   158   159    1
   138   158   155   am
   139    58    61    1
   140    58    57    1
   141   159   160    1
   142   177   178    1
   143   177   174    1
   144   180   178   ar
   145   180   182   ar
   146   173   174    1
   147   160   166   am
   148   169   168    2
   149   154   155    1
   150   154   157    1
   151    27    26    1
   152    52    57   am
   153    52    51    1
   154   178   179   ar
   155    40    36   am
   156    50    51    1
   157    26    23    1
   158   175   174    1
   159   175   176    2
   160   155   156    2
   161   182   183   ar
   162    37    36    2
   163   168   167    1
   164    36    35    1
   165    51    54    1
   166   166   167    1
   167   166   172    1
   168   179   181   ar
   169    25    24    2
   170   167   170    1
   171    23    24    1
   172    23    22    1
   173   183   181   ar
   174   183   184    1
   175     7     5    1
   176    38    35    1
   177    38    39    1
   178    35    34    1
   179    54    55    1
   180    54    56    1
   181   172   171    1
   182    22    17   am
   183     5     6    1
   184     5     2    1
   185   170   171    1
   186    34    30   am
   187    17    18    2
   188    17    16    1
   189    11    10    2
   190     2     1    1
   191     2     3    1
   192    30    31    2
   193    30    29    1
   194    28    29    1
   195    29    32    1
   196    16    15    1
   197    16    19    1
   198    10    15   am
   199    10     9    1
   200     3     4    2
   201    14     8    1
   202    14    13    1
   203     8     9    1
   204    12    13    1
   205    12     9    1
   206    32    33    1
   207    19    21    1
   208    19    20    1
