@<TRIPOS>MOLECULE
tmp/1gkzA00.pdb
 187 178 0 0 0
SMALL
GASTEIGER

@<TRIPOS>ATOM
      1  N         93.8730  119.7780   41.1940 N.3   208  GLU208     -0.1231
      2  CA        94.5330  120.2180   39.9630 C.3   208  GLU208      0.1699
      3  C         95.0540  118.9750   39.2080 C.2   208  GLU208      0.2592
      4  O         94.8580  118.8600   37.9970 O.2   208  GLU208     -0.2718
      5  CB        95.7270  121.1480   40.2480 C.3   208  GLU208      0.0402
      6  CG        95.3660  122.5560   40.7360 C.3   208  GLU208      0.1161
      7  CD        94.3650  123.2590   39.8110 C.2   208  GLU208      0.3649
      8  OE1       94.5770  123.2650   38.5660 O.co2 208  GLU208     -0.2457
      9  OE2       93.3590  123.8000   40.3370 O.co2 208  GLU208     -0.2457
     10  N         95.7090  118.0450   39.9120 N.am  209  LEU209     -0.1980
     11  CA        96.2760  116.8960   39.2020 C.3   209  LEU209      0.1596
     12  C         95.2220  115.9630   38.6240 C.2   209  LEU209      0.2287
     13  O         95.3610  115.4570   37.4990 O.2   209  LEU209     -0.2864
     14  CB        97.2810  116.1590   40.0980 C.3   209  LEU209      0.0297
     15  CG        98.4500  117.0420   40.5420 C.3   209  LEU209      0.0022
     16  CD1       99.4640  116.2810   41.4610 C.3   209  LEU209      0.0001
     17  CD2       99.1750  117.5520   39.2790 C.3   209  LEU209      0.0001
     18  N         93.7120  117.4840   35.4420 N.3   212  ASN212     -0.1225
     19  CA        94.6110  117.2210   34.3080 C.3   212  ASN212      0.1785
     20  C         94.5010  115.7980   33.8220 C.2   212  ASN212      0.2597
     21  O         94.3860  115.5600   32.6180 O.2   212  ASN212     -0.2718
     22  CB        96.0910  117.4820   34.6850 C.3   212  ASN212      0.1169
     23  CG        96.3490  118.9410   34.9180 C.2   212  ASN212      0.2627
     24  OD1       95.5070  119.7520   34.5280 O.2   212  ASN212     -0.2716
     25  ND2       97.4820  119.2960   35.5380 N.am  212  ASN212     -0.0877
     26  N         94.4960  114.8430   34.7510 N.am  213  ALA213     -0.1979
     27  CA        94.4530  113.4460   34.3270 C.3   213  ALA213      0.1597
     28  C         93.1580  113.0720   33.6470 C.2   213  ALA213      0.2287
     29  O         93.1790  112.3430   32.6420 O.2   213  ALA213     -0.2864
     30  CB        94.7060  112.5040   35.5100 C.3   213  ALA213      0.0319
     31  N         90.9160  115.1130   32.1070 N.3   215  ARG215     -0.1231
     32  CA        90.7760  115.7470   30.8190 C.3   215  ARG215      0.1694
     33  C         91.6060  115.0330   29.7560 C.2   215  ARG215      0.2591
     34  O         91.1100  114.7340   28.6760 O.2   215  ARG215     -0.2718
     35  CB        91.2260  117.2140   30.8530 C.3   215  ARG215      0.0321
     36  CG        91.1190  117.8530   29.4700 C.3   215  ARG215      0.0489
     37  CD        91.0840  119.3570   29.5110 C.3   215  ARG215      0.2205
     38  NE        92.4160  119.9420   29.3850 N.pl3 215  ARG215     -0.0865
     39  CZ        93.0480  120.2090   28.2280 C.cat 215  ARG215      0.5346
     40  NH1       92.4640  119.9390   27.0550 N.pl3 215  ARG215      0.1354
     41  NH2       94.2680  120.7710   28.2520 N.pl3 215  ARG215      0.1354
     42  N         92.8810  114.7910   30.0500 N.am  216  ALA216     -0.1980
     43  CA        93.7410  114.1620   29.0570 C.3   216  ALA216      0.1597
     44  C         93.1500  112.8010   28.6830 C.2   216  ALA216      0.2287
     45  O         93.2290  112.3710   27.5340 O.2   216  ALA216     -0.2864
     46  CB        95.2030  114.0100   29.6170 C.3   216  ALA216      0.0319
     47  N         97.7340  107.9900   34.4400 N.3   248  ASP248     -0.1239
     48  CA        96.6000  107.9610   33.5220 C.3   248  ASP248      0.1674
     49  C         97.0030  107.2760   32.2010 C.2   248  ASP248      0.2266
     50  O         98.1930  107.0390   31.9540 O.2   248  ASP248     -0.2867
     51  CB        96.1150  109.4000   33.2330 C.3   248  ASP248      0.1410
     52  CG        97.1730  110.2830   32.5710 C.2   248  ASP248      0.3668
     53  OD1       97.5570  111.3400   33.1690 O.co2 248  ASP248     -0.2456
     54  OD2       97.6020  109.9830   31.4350 O.co2 248  ASP248     -0.2456
     55  N         96.0210  108.6720   29.2630 N.3   250  GLY250     -0.1225
     56  CA        95.5260  109.7000   28.3550 C.3   250  GLY250      0.1811
     57  C         96.4150  110.2170   27.2260 C.2   250  GLY250      0.2280
     58  O         96.3060  111.3970   26.8170 O.2   250  GLY250     -0.2866
     59  N         99.6820  110.8870   27.1540 N.3   252  GLY252     -0.1210
     60  CA       100.9710  111.5000   27.4770 C.3   252  GLY252      0.1956
     61  C        101.1010  112.9810   27.1700 C.2   252  GLY252      0.2611
     62  O        100.1650  113.5880   26.6530 O.2   252  GLY252     -0.2717
     63  N        102.2200  113.5780   27.5530 N.am  253  ILE253     -0.1979
     64  CA       102.4900  115.0070   27.2510 C.3   253  ILE253      0.1595
     65  C        103.5370  115.0200   26.1340 C.2   253  ILE253      0.2287
     66  O        104.7030  114.5960   26.3420 O.2   253  ILE253     -0.2864
     67  CB       103.1150  115.7550   28.4360 C.3   253  ILE253      0.0276
     68  CG1      102.1980  115.7020   29.6470 C.3   253  ILE253      0.0022
     69  CG2      103.3670  117.2060   28.0660 C.3   253  ILE253      0.0022
     70  CD1      102.8680  116.1630   30.9030 C.3   253  ILE253      0.0001
     71  N        105.7210  119.7580   23.9200 N.3   257  ASP257     -0.1239
     72  CA       105.1750  120.5890   25.0050 C.3   257  ASP257      0.1674
     73  C        105.8680  120.3560   26.3420 C.2   257  ASP257      0.2266
     74  O        105.8050  121.1780   27.2420 O.2   257  ASP257     -0.2867
     75  CB       103.6700  120.3420   25.1990 C.3   257  ASP257      0.1410
     76  CG       102.8710  120.5860   23.9330 C.2   257  ASP257      0.3668
     77  OD1      103.2440  121.4930   23.1830 O.co2 257  ASP257     -0.2456
     78  OD2      101.8620  119.8990   23.6670 O.co2 257  ASP257     -0.2456
     79  N        104.9300  122.9550   29.6840 N.3   261  VAL261     -0.1245
     80  CA       103.8870  122.6860   30.6750 C.3   261  VAL261      0.1561
     81  C        104.0630  123.1940   32.0910 C.2   261  VAL261      0.2260
     82  O        103.0590  123.3370   32.7740 O.2   261  VAL261     -0.2867
     83  CB       103.5280  121.1810   30.8090 C.3   261  VAL261      0.0252
     84  CG1      103.0910  120.6260   29.4660 C.3   261  VAL261      0.0019
     85  CG2      104.6730  120.4350   31.4550 C.3   261  VAL261      0.0019
     86  N        101.0550  128.7450   30.3490 N.3   266  PHE266     -0.1227
     87  CA       101.0620  127.7770   29.2630 C.3   266  PHE266      0.1736
     88  C         99.9190  126.7850   29.3850 C.2   266  PHE266      0.2596
     89  O         99.6300  126.2690   30.4530 O.2   266  PHE266     -0.2718
     90  CB       102.3850  127.0020   29.1780 C.3   266  PHE266      0.0547
     91  CG       102.3810  125.9650   28.0850 C.ar  266  PHE266     -0.0202
     92  CD1      102.3200  126.3580   26.7410 C.ar  266  PHE266     -0.0042
     93  CD2      102.3060  124.6170   28.3910 C.ar  266  PHE266     -0.0042
     94  CE1      102.1710  125.4180   25.7120 C.ar  266  PHE266     -0.0003
     95  CE2      102.1550  123.6670   27.3770 C.ar  266  PHE266     -0.0003
     96  CZ       102.0850  124.0710   26.0250 C.ar  266  PHE266     -0.0000
     97  N         99.2590  126.5030   28.2790 N.am  267  THR267     -0.1939
     98  CA        98.1700  125.5570   28.3180 C.3   267  THR267      0.2028
     99  C         97.9340  125.0350   26.9080 C.2   267  THR267      0.2642
    100  O         98.3760  125.6290   25.9290 O.2   267  THR267     -0.2714
    101  CB        96.8900  126.2060   28.9220 C.3   267  THR267      0.1808
    102  OG1       95.7440  125.3740   28.6740 O.3   267  THR267     -0.2208
    103  CG2       96.6720  127.5740   28.3500 C.3   267  THR267      0.0379
    104  N         97.2820  123.8870   26.8370 N.am  268  THR268     -0.1950
    105  CA        96.9540  123.2220   25.5910 C.3   268  THR268      0.1897
    106  C         95.4440  123.4020   25.3610 C.2   268  THR268      0.2313
    107  O         94.9080  123.0170   24.3190 O.2   268  THR268     -0.2863
    108  CB        97.3360  121.7120   25.7100 C.3   268  THR268      0.1794
    109  OG1       98.5640  121.4880   25.0100 O.3   268  THR268     -0.2208
    110  CG2       96.2530  120.7990   25.1700 C.3   268  THR268      0.0378
    111  N         89.9390  123.1750   32.9030 N.3   272  HIS272     -0.1241
    112  CA        91.3990  123.2400   33.0190 C.3   272  HIS272      0.1621
    113  C         91.9060  124.4050   33.8980 C.2   272  HIS272      0.2264
    114  O         92.8520  124.2460   34.6710 O.2   272  HIS272     -0.2867
    115  CB        92.0500  123.3460   31.6280 C.3   272  HIS272      0.0745
    116  CG        92.1290  124.7490   31.0960 C.ar  272  HIS272      0.0817
    117  ND1       91.0230  125.4450   30.6540 N.ar  272  HIS272     -0.2268
    118  CD2       93.1810  125.5960   30.9640 C.ar  272  HIS272      0.1154
    119  CE1       91.3900  126.6590   30.2770 C.ar  272  HIS272      0.1986
    120  NE2       92.6950  126.7770   30.4550 N.ar  272  HIS272     -0.2212
    121  N         93.5940  128.0450   33.7800 N.3   274  PHE274     -0.1227
    122  CA        94.2900  129.0370   32.9530 C.3   274  PHE274      0.1736
    123  C         95.8120  128.7950   32.8960 C.2   274  PHE274      0.2596
    124  O         96.6140  129.7340   32.9240 O.2   274  PHE274     -0.2718
    125  CB        93.9690  130.4600   33.4790 C.3   274  PHE274      0.0547
    126  CG        93.9580  130.5870   35.0040 C.ar  274  PHE274     -0.0202
    127  CD1       95.1500  130.7530   35.7300 C.ar  274  PHE274     -0.0042
    128  CD2       92.7470  130.5670   35.7130 C.ar  274  PHE274     -0.0042
    129  CE1       95.1350  130.9020   37.1480 C.ar  274  PHE274     -0.0003
    130  CE2       92.7220  130.7130   37.1260 C.ar  274  PHE274     -0.0003
    131  CZ        93.9210  130.8810   37.8410 C.ar  274  PHE274     -0.0000
    132  N         96.2040  127.5230   32.8200 N.am  275  GLY275     -0.1942
    133  CA        97.6150  127.1940   32.7620 C.3   275  GLY275      0.2014
    134  C         98.4020  127.4360   34.0420 C.2   275  GLY275      0.2639
    135  O         99.5950  127.6680   33.9770 O.2   275  GLY275     -0.2714
    136  N         97.7550  127.4060   35.2020 N.am  276  PHE276     -0.1959
    137  CA        98.4570  127.6290   36.4750 C.3   276  PHE276      0.1771
    138  C         98.6120  126.3800   37.3500 C.2   276  PHE276      0.2620
    139  O         99.4950  126.3410   38.2150 O.2   276  PHE276     -0.2715
    140  CB        97.7510  128.7270   37.2980 C.3   276  PHE276      0.0574
    141  CG        98.3490  130.1000   37.1150 C.ar  276  PHE276     -0.0200
    142  CD1       98.5940  130.6080   35.8260 C.ar  276  PHE276     -0.0042
    143  CD2       98.7250  130.8610   38.2230 C.ar  276  PHE276     -0.0042
    144  CE1       99.2200  131.8510   35.6480 C.ar  276  PHE276     -0.0003
    145  CE2       99.3500  132.1020   38.0590 C.ar  276  PHE276     -0.0003
    146  CZ        99.6010  132.5960   36.7570 C.ar  276  PHE276     -0.0000
    147  N         97.7690  125.3740   37.1020 N.am  277  GLY277     -0.1940
    148  CA        97.7600  124.1180   37.8550 C.3   277  GLY277      0.2014
    149  C         99.0700  123.4600   38.1930 C.2   277  GLY277      0.2639
    150  O         99.3940  123.2440   39.3790 O.2   277  GLY277     -0.2714
    151  N         99.8300  123.1360   37.1570 N.am  278  LEU278     -0.1963
    152  CA       101.1110  122.4990   37.3250 C.3   278  LEU278      0.1713
    153  C        102.1710  123.3840   37.9210 C.2   278  LEU278      0.2458
    154  O        102.8270  123.0000   38.8810 O.2   278  LEU278     -0.2730
    155  CB       101.5960  121.9320   35.9860 C.3   278  LEU278      0.0310
    156  CG       101.1110  120.5350   35.5390 C.3   278  LEU278      0.0022
    157  CD1      101.7190  120.1360   34.2100 C.3   278  LEU278      0.0001
    158  CD2      101.4890  119.5160   36.5910 C.3   278  LEU278      0.0001
    159  N        102.4110  124.5830   37.3480 N.am  279  PRO279     -0.2727
    160  CA       103.4640  125.4100   37.9740 C.3   279  PRO279      0.1402
    161  C        103.0990  125.7810   39.4350 C.2   279  PRO279      0.2269
    162  O        103.9760  125.9250   40.3050 O.2   279  PRO279     -0.2865
    163  CB       103.5430  126.6600   37.0520 C.3   279  PRO279      0.0296
    164  CG       102.1270  126.7670   36.4840 C.3   279  PRO279      0.0237
    165  CD       101.8030  125.2560   36.1850 C.3   279  PRO279      0.0939
    166  N        107.0240  114.8280   36.6870 N.3   294  LEU294     -0.1245
    167  CA       106.2310  114.2490   35.6410 C.3   294  LEU294      0.1561
    168  C        106.9830  113.1820   34.8580 C.2   294  LEU294      0.2260
    169  O        108.1780  113.3440   34.5590 O.2   294  LEU294     -0.2867
    170  CB       105.8450  115.3180   34.6360 C.3   294  LEU294      0.0270
    171  CG       105.1480  116.6050   35.1070 C.3   294  LEU294      0.0019
    172  CD1      105.2600  117.6220   33.9670 C.3   294  LEU294      0.0001
    173  CD2      103.6990  116.4020   35.4380 C.3   294  LEU294      0.0001
    174  N        100.5810  109.4500   31.2820 N.3   302  THR302     -0.1218
    175  CA       101.4890  110.2170   32.0990 C.3   302  THR302      0.1862
    176  C        101.4250  109.7940   33.5490 C.2   302  THR302      0.2287
    177  O        100.3270  109.4950   34.0710 O.2   302  THR302     -0.2866
    178  CB       101.0700  111.7280   32.0750 C.3   302  THR302      0.1770
    179  OG1      100.9770  112.1580   30.7280 O.3   302  THR302     -0.2211
    180  CG2      102.0790  112.6280   32.8020 C.3   302  THR302      0.0375
    181  N        102.2780  111.2040   37.3350 N.3   304  VAL304     -0.1245
    182  CA       102.6420  112.3940   38.0720 C.3   304  VAL304      0.1561
    183  C        102.9610  111.9880   39.5100 C.2   304  VAL304      0.2260
    184  O        102.1540  111.3370   40.1870 O.2   304  VAL304     -0.2867
    185  CB       101.4690  113.4570   38.0250 C.3   304  VAL304      0.0252
    186  CG1      101.8490  114.6890   38.8210 C.3   304  VAL304      0.0019
    187  CG2      101.2120  113.8630   36.5640 C.3   304  VAL304      0.0019
@<TRIPOS>BOND
     1    77    76   ar
     2    78    76   ar
     3    71    72    1
     4    76    75    1
     5   107   106    2
     6    72    75    1
     7    72    73    1
     8   109   108    1
     9   110   108    1
    10   106   105    1
    11   105   108    1
    12   105   104    1
    13    94    96   ar
    14    94    92   ar
    15   100    99    2
    16    96    95   ar
    17    65    66    2
    18    65    64    1
    19    73    74    2
    20    62    61    2
    21    92    91   ar
    22    58    57    2
    23   104    99   am
    24    99    98    1
    25    40    39    1
    26    59    60    1
    27    61    60    1
    28    61    63   am
    29    57    56    1
    30    64    63    1
    31    64    67    1
    32    95    93   ar
    33    45    44    2
    34    69    67    1
    35    91    93   ar
    36    91    90    1
    37    39    41    1
    38    39    38    2
    39    97    98    1
    40    97    88   am
    41    98   101    1
    42   103   101    1
    43    56    55    1
    44    67    68    1
    45   102   101    1
    46    34    33    2
    47    44    43    1
    48    43    46    1
    49    43    42    1
    50    90    87    1
    51    87    88    1
    52    87    86    1
    53    88    89    2
    54    38    37    1
    55    84    83    1
    56    36    37    1
    57    36    35    1
    58    68    70    1
    59    79    80    1
    60    33    42   am
    61    33    32    1
    62   119   120   ar
    63   119   117   ar
    64   120   118   ar
    65   117   116   ar
    66    80    83    1
    67    80    81    1
    68   179   178    1
    69    83    85    1
    70    32    35    1
    71    32    31    1
    72   118   116   ar
    73   116   115    1
    74   174   175    1
    75    54    52   ar
    76   115   112    1
    77    50    49    2
    78   178   175    1
    79   178   180    1
    80    81    82    2
    81   175   176    1
    82    49    48    1
    83    52    53   ar
    84    52    51    1
    85    21    20    2
    86    29    28    2
    87   133   132    1
    88   133   134    1
    89   132   123   am
    90   123   124    2
    91   123   122    1
    92   111   112    1
    93   122   125    1
    94   122   121    1
    95   112   113    1
    96    51    48    1
    97   125   126    1
    98    48    47    1
    99   176   177    2
   100    28    27    1
   101    20    19    1
   102    20    26   am
   103   113   114    2
   104   172   171    1
   105   135   134    2
   106   134   136   am
   107   157   156    1
   108    19    22    1
   109    19    18    1
   110    27    26    1
   111    27    30    1
   112    24    23    2
   113   169   168    2
   114   170   171    1
   115   170   167    1
   116    22    23    1
   117   168   167    1
   118    23    25   am
   119   126   128   ar
   120   126   127   ar
   121   171   173    1
   122   136   137    1
   123   156   155    1
   124   156   158    1
   125   167   166    1
   126   144   142   ar
   127   144   146   ar
   128   128   130   ar
   129   127   129   ar
   130   142   141   ar
   131   155   152    1
   132   165   164    1
   133   165   159    1
   134   137   140    1
   135   137   138    1
   136   164   163    1
   137   187   185    1
   138   146   145   ar
   139   163   160    1
   140   147   138   am
   141   147   148    1
   142   141   140    1
   143   141   143   ar
   144   130   131   ar
   145   129   131   ar
   146   151   152    1
   147   151   149   am
   148   152   153    1
   149   181   182    1
   150   159   153   am
   151   159   160    1
   152   138   139    2
   153    13    12    2
   154   148   149    1
   155   153   154    2
   156   160   161    1
   157     4     3    2
   158   185   182    1
   159   185   186    1
   160   145   143   ar
   161   182   183    1
   162   149   150    2
   163     8     7   ar
   164    12    11    1
   165    11    10    1
   166    11    14    1
   167     3    10   am
   168     3     2    1
   169    17    15    1
   170   161   162    2
   171   183   184    2
   172     7     9   ar
   173     7     6    1
   174     2     5    1
   175     2     1    1
   176    14    15    1
   177     5     6    1
   178    15    16    1
