@<TRIPOS>MOLECULE
tmp/1gl3A00.pdb
 102 94 0 0 0
SMALL
GASTEIGER

@<TRIPOS>ATOM
      1  N          0.8190   36.7740   13.2140 N.3   134  ASN134     -0.1225
      2  CA         0.8410   37.6540   14.3660 C.3   134  ASN134      0.1785
      3  C          2.2900   37.8760   14.7690 C.2   134  ASN134      0.2597
      4  O          3.0790   36.9370   14.8030 O.2   134  ASN134     -0.2718
      5  CB         0.0790   37.0210   15.5240 C.3   134  ASN134      0.1169
      6  CG        -0.3560   38.0370   16.5520 C.2   134  ASN134      0.2627
      7  OD1       -1.0430   39.0060   16.2290 O.2   134  ASN134     -0.2716
      8  ND2        0.0410   37.8240   17.8010 N.am  134  ASN134     -0.0877
      9  N          2.6360   39.1230   15.0660 N.am  135  CYS135     -0.1956
     10  CA         3.9920   39.4810   15.4730 C.3   135  CYS135      0.1843
     11  C          4.5420   38.5670   16.5690 C.2   135  CYS135      0.2626
     12  O          5.7150   38.2030   16.5330 O.2   135  CYS135     -0.2714
     13  CB         4.0170   40.9280   15.9660 C.3   135  CYS135      0.0997
     14  SG         3.1030   41.1570   17.5220 S.3   135  CYS135     -0.0797
     15  N          3.7010   38.1970   17.5370 N.am  136  THR136     -0.1950
     16  CA         4.1340   37.3320   18.6370 C.3   136  THR136      0.1897
     17  C          4.4440   35.9030   18.1850 C.2   136  THR136      0.2313
     18  O          5.4960   35.3530   18.5270 O.2   136  THR136     -0.2863
     19  CB         3.0820   37.2800   19.7750 C.3   136  THR136      0.1794
     20  OG1        2.0750   36.3140   19.4600 O.3   136  THR136     -0.2208
     21  CG2        2.4310   38.6410   19.9610 C.3   136  THR136      0.0378
     22  N          3.7110   41.8500   25.8360 N.3   162  GLN162     -0.1245
     23  CA         3.5870   42.6190   24.6040 C.3   162  GLN162      0.1566
     24  C          3.7240   44.1260   24.7530 C.2   162  GLN162      0.2260
     25  O          3.1590   44.7320   25.6630 O.2   162  GLN162     -0.2867
     26  CB         2.2660   42.2630   23.9340 C.3   162  GLN162      0.0367
     27  CG         1.8880   40.8070   24.1590 C.3   162  GLN162      0.0905
     28  CD         1.1280   40.2120   23.0040 C.2   162  GLN162      0.2608
     29  OE1        0.7210   40.9170   22.0860 O.2   162  GLN162     -0.2717
     30  NE2        0.9280   38.9060   23.0420 N.am  162  GLN162     -0.0878
     31  N          2.3860   47.4110   19.5420 N.3   166  GLY166     -0.1210
     32  CA         1.5600   46.4180   18.8820 C.3   166  GLY166      0.1956
     33  C          0.2160   46.9790   18.4630 C.2   166  GLY166      0.2612
     34  O         -0.3390   46.5870   17.4310 O.2   166  GLY166     -0.2717
     35  N         -0.3060   47.9040   19.2630 N.am  167  GLY167     -0.1956
     36  CA        -1.5920   48.5040   18.9620 C.3   167  GLY167      0.1869
     37  C         -1.5270   49.6120   17.9270 C.2   167  GLY167      0.2309
     38  O         -2.5630   50.1200   17.4950 O.2   167  GLY167     -0.2863
     39  N         -5.8120   41.1210   25.0730 N.3   230  ILE230     -0.1231
     40  CA        -5.3840   41.8620   23.8960 C.3   230  ILE230      0.1692
     41  C         -6.4460   42.0120   22.8110 C.2   230  ILE230      0.2592
     42  O         -6.9440   43.1150   22.5780 O.2   230  ILE230     -0.2718
     43  CB        -4.1270   41.2330   23.2700 C.3   230  ILE230      0.0266
     44  CG1       -2.9830   41.2470   24.2860 C.3   230  ILE230      0.0019
     45  CG2       -3.7210   42.0030   22.0250 C.3   230  ILE230      0.0020
     46  CD1       -2.5780   42.6280   24.7330 C.3   230  ILE230      0.0001
     47  N         -6.7990   40.9230   22.1410 N.am  231  ASP231     -0.1974
     48  CA        -7.7940   41.0230   21.0790 C.3   231  ASP231      0.1709
     49  C         -9.2240   40.8250   21.5780 C.2   231  ASP231      0.2293
     50  O         -9.4700   40.7460   22.7830 O.2   231  ASP231     -0.2864
     51  CB        -7.4790   40.0150   19.9740 C.3   231  ASP231      0.1436
     52  CG        -7.8290   40.5350   18.5960 C.2   231  ASP231      0.3671
     53  OD1       -8.8730   41.2030   18.4590 O.co2 231  ASP231     -0.2456
     54  OD2       -7.0620   40.2730   17.6470 O.co2 231  ASP231     -0.2456
     55  N         -6.2930   37.0990   20.5540 N.3   241  GLU241     -0.1245
     56  CA        -4.8350   37.1910   20.4840 C.3   241  GLU241      0.1567
     57  C         -4.1650   35.8750   20.8720 C.2   241  GLU241      0.2260
     58  O         -3.1660   35.4750   20.2720 O.2   241  GLU241     -0.2867
     59  CB        -4.3290   38.3140   21.4000 C.3   241  GLU241      0.0388
     60  CG        -2.8400   38.5920   21.2720 C.3   241  GLU241      0.1160
     61  CD        -2.4790   39.2320   19.9480 C.2   241  GLU241      0.3649
     62  OE1       -3.3990   39.5800   19.1800 O.co2 241  GLU241     -0.2457
     63  OE2       -1.2730   39.3910   19.6710 O.co2 241  GLU241     -0.2457
     64  N         -4.7320   32.9560   18.3300 N.3   244  LYS244     -0.1245
     65  CA        -3.8870   33.0620   17.1460 C.3   244  LYS244      0.1561
     66  C         -2.6780   32.1460   17.3060 C.2   244  LYS244      0.2260
     67  O         -2.1620   31.6020   16.3330 O.2   244  LYS244     -0.2867
     68  CB        -3.4030   34.4990   16.9630 C.3   244  LYS244      0.0271
     69  CG        -4.4520   35.4560   16.4420 C.3   244  LYS244      0.0035
     70  CD        -3.9090   36.8720   16.4530 C.3   244  LYS244      0.0206
     71  CE        -5.0040   37.9020   16.2420 C.3   244  LYS244      0.1093
     72  NZ        -4.4570   39.2800   16.3820 N.3   244  LYS244     -0.1314
     73  N         -0.6320   42.9270   27.7530 N.3   267  ARG267     -0.1245
     74  CA        -0.0480   44.1630   27.2520 C.3   267  ARG267      0.1563
     75  C          0.6390   44.8880   28.4040 C.2   267  ARG267      0.2260
     76  O          0.0410   45.0790   29.4670 O.2   267  ARG267     -0.2867
     77  CB        -1.1330   45.0630   26.6560 C.3   267  ARG267      0.0307
     78  CG        -0.6010   46.3520   26.0660 C.3   267  ARG267      0.0489
     79  CD        -1.0840   46.5460   24.6390 C.3   267  ARG267      0.2205
     80  NE        -0.2690   45.8110   23.6740 N.pl3 267  ARG267     -0.0865
     81  CZ        -0.7560   45.1980   22.6000 C.cat 267  ARG267      0.5346
     82  NH1       -2.0600   45.2340   22.3580 N.pl3 267  ARG267      0.1354
     83  NH2        0.0580   44.5590   21.7640 N.pl3 267  ARG267      0.1354
     84  N          8.5630   42.6950   21.8460 N.3   274  HIS274     -0.1241
     85  CA         7.6190   41.7180   22.3980 C.3   274  HIS274      0.1621
     86  C          8.3910   40.5590   23.0390 C.2   274  HIS274      0.2264
     87  O          9.1600   39.8680   22.3720 O.2   274  HIS274     -0.2867
     88  CB         6.7140   41.1650   21.2930 C.3   274  HIS274      0.0745
     89  CG         5.4290   41.9130   21.1240 C.ar  274  HIS274      0.0817
     90  ND1        5.3520   43.2870   21.2010 N.ar  274  HIS274     -0.2268
     91  CD2        4.1690   41.4780   20.8830 C.ar  274  HIS274      0.1154
     92  CE1        4.0980   43.6660   21.0140 C.ar  274  HIS274      0.1986
     93  NE2        3.3620   42.5880   20.8190 N.ar  274  HIS274     -0.2212
     94  N          8.8960   43.1380   17.1800 N.3   350  GLN350     -0.1245
     95  CA         7.7520   42.6060   16.4460 C.3   350  GLN350      0.1566
     96  C          7.4110   43.4710   15.2430 C.2   350  GLN350      0.2260
     97  O          6.4590   43.1950   14.5130 O.2   350  GLN350     -0.2867
     98  CB         6.5370   42.4970   17.3710 C.3   350  GLN350      0.0367
     99  CG         5.6930   43.7610   17.4530 C.3   350  GLN350      0.0905
    100  CD         6.4060   44.9140   18.1430 C.2   350  GLN350      0.2608
    101  OE1        5.8270   45.9820   18.3360 O.2   350  GLN350     -0.2717
    102  NE2        7.6590   44.7070   18.5160 N.am  350  GLN350     -0.0878
@<TRIPOS>BOND
     1     1     2    1
     2     2     3    1
     3     2     5    1
     4    97    96    2
     5     3     4    2
     6     3     9   am
     7     9    10    1
     8    96    95    1
     9    10    13    1
    10    10    11    1
    11     5     6    1
    12    13    14    1
    13     7     6    2
    14    71    72    1
    15    71    70    1
    16    67    66    2
    17    69    70    1
    18    69    68    1
    19    95    94    1
    20    95    98    1
    21    12    11    2
    22     6     8   am
    23    11    15   am
    24    68    65    1
    25    65    66    1
    26    65    64    1
    27    98    99    1
    28    34    33    2
    29    99   100    1
    30    38    37    2
    31    15    16    1
    32    54    52   ar
    33    37    36    1
    34   100   101    2
    35   100   102   am
    36    17    18    2
    37    17    16    1
    38    53    52   ar
    39    33    32    1
    40    33    35   am
    41    52    51    1
    42    16    19    1
    43    32    31    1
    44    36    35    1
    45    62    61   ar
    46    20    19    1
    47    63    61   ar
    48    19    21    1
    49    61    60    1
    50    51    48    1
    51    58    57    2
    52    56    55    1
    53    56    57    1
    54    56    59    1
    55    93    91   ar
    56    93    92   ar
    57    91    89   ar
    58    92    90   ar
    59    48    49    1
    60    48    47    1
    61    89    90   ar
    62    89    88    1
    63    60    59    1
    64    88    85    1
    65    49    50    2
    66    83    81    1
    67    84    85    1
    68    45    43    1
    69    29    28    2
    70    47    41   am
    71    82    81    1
    72    87    86    2
    73    85    86    1
    74    42    41    2
    75    81    80    2
    76    41    40    1
    77    28    30   am
    78    28    27    1
    79    43    40    1
    80    43    44    1
    81    80    79    1
    82    40    39    1
    83    26    27    1
    84    26    23    1
    85    44    46    1
    86    23    24    1
    87    23    22    1
    88    79    78    1
    89    24    25    2
    90    78    77    1
    91    77    74    1
    92    74    73    1
    93    74    75    1
    94    75    76    2
