@<TRIPOS>MOLECULE
tmp/1gl6B00.pdb
 102 96 0 0 0
SMALL
GASTEIGER

@<TRIPOS>ATOM
      1  N        -49.2520   56.6190  120.8410 N.3    60  ALA60      -0.1231
      2  CA       -48.9480   58.0400  120.6760 C.3    60  ALA60       0.1694
      3  C        -49.3180   58.8020  121.9420 C.2    60  ALA60       0.2593
      4  O        -50.0030   58.2800  122.8340 O.2    60  ALA60      -0.2718
      5  CB       -49.6930   58.6140  119.4910 C.3    60  ALA60       0.0304
      6  N        -48.8640   60.0440  122.0290 N.am   61  THR61      -0.1939
      7  CA       -49.1420   60.8310  123.2180 C.3    61  THR61       0.2028
      8  C        -50.6090   61.2670  123.2930 C.2    61  THR61       0.2643
      9  O        -51.1920   61.7040  122.2920 O.2    61  THR61      -0.2714
     10  CB       -48.2260   62.0550  123.2730 C.3    61  THR61       0.1808
     11  OG1      -48.6570   62.9270  124.3230 O.3    61  THR61      -0.2208
     12  CG2      -48.2590   62.7760  121.9490 C.3    61  THR61       0.0379
     13  N        -51.1990   61.1080  124.4810 N.am   62  GLY62      -0.1939
     14  CA       -52.5870   61.4860  124.7080 C.3    62  GLY62       0.2014
     15  C        -53.6190   60.4030  124.4290 C.2    62  GLY62       0.2640
     16  O        -54.8220   60.6560  124.5020 O.2    62  GLY62      -0.2714
     17  N        -53.1470   59.1950  124.1240 N.am   63  THR63      -0.1936
     18  CA       -54.0290   58.0700  123.8150 C.3    63  THR63       0.2028
     19  C        -54.5550   57.3200  125.0280 C.2    63  THR63       0.2643
     20  O        -55.4810   56.5300  124.9020 O.2    63  THR63      -0.2714
     21  CB       -53.3420   57.0470  122.8710 C.3    63  THR63       0.1808
     22  OG1      -52.1060   56.6050  123.4550 O.3    63  THR63      -0.2208
     23  CG2      -53.0810   57.6770  121.5040 C.3    63  THR63       0.0379
     24  N        -53.9700   57.5520  126.1970 N.am   64  GLY64      -0.1939
     25  CA       -54.4530   56.8720  127.3840 C.3    64  GLY64       0.2014
     26  C        -53.4570   56.0490  128.1730 C.2    64  GLY64       0.2639
     27  O        -53.8640   55.2760  129.0330 O.2    64  GLY64      -0.2714
     28  N        -52.1640   56.1900  127.9050 N.am   65  LYS65      -0.1963
     29  CA       -51.1950   55.4190  128.6590 C.3    65  LYS65       0.1728
     30  C        -51.4310   55.6890  130.1350 C.2    65  LYS65       0.2617
     31  O        -51.4080   54.7740  130.9460 O.2    65  LYS65      -0.2715
     32  CB       -49.7720   55.8090  128.2710 C.3    65  LYS65       0.0311
     33  CG       -49.4900   55.6130  126.7900 C.3    65  LYS65       0.0038
     34  CD       -48.0930   55.0400  126.5190 C.3    65  LYS65       0.0206
     35  CE       -47.0780   56.1200  126.2060 C.3    65  LYS65       0.1093
     36  NZ       -47.4510   56.9220  125.0070 N.3    65  LYS65      -0.1314
     37  N        -51.6860   56.9490  130.4700 N.am   66  SER66      -0.1936
     38  CA       -51.9260   57.3550  131.8520 C.3    66  SER66       0.2055
     39  C        -53.1310   56.6540  132.4420 C.2    66  SER66       0.2642
     40  O        -53.0220   55.9960  133.4670 O.2    66  SER66      -0.2714
     41  CB       -52.1550   58.8690  131.9330 C.3    66  SER66       0.2130
     42  OG       -51.0140   59.6050  131.5260 O.3    66  SER66      -0.2179
     43  N        -54.2830   56.8100  131.7950 N.am   67  VAL67      -0.1977
     44  CA       -55.5110   56.1870  132.2600 C.3    67  VAL67       0.1596
     45  C        -55.3010   54.7020  132.5170 C.2    67  VAL67       0.2287
     46  O        -55.8510   54.1370  133.4660 O.2    67  VAL67      -0.2864
     47  CB       -56.6320   56.3470  131.2310 C.3    67  VAL67       0.0276
     48  CG1      -57.8850   55.6390  131.7150 C.3    67  VAL67       0.0022
     49  CG2      -56.9090   57.8150  131.0110 C.3    67  VAL67       0.0022
     50  N        -52.6050   54.1010  135.4220 N.3    70  ARG70      -0.1245
     51  CA       -53.2480   54.5360  136.6470 C.3    70  ARG70       0.1563
     52  C        -54.1880   53.4350  137.1180 C.2    70  ARG70       0.2260
     53  O        -54.2310   53.0990  138.3090 O.2    70  ARG70      -0.2867
     54  CB       -54.0230   55.8260  136.3800 C.3    70  ARG70       0.0307
     55  CG       -54.2710   56.6980  137.5950 C.3    70  ARG70       0.0489
     56  CD       -54.9820   57.9780  137.2140 C.3    70  ARG70       0.2205
     57  NE       -54.1800   58.8030  136.3180 N.pl3  70  ARG70      -0.0865
     58  CZ       -54.6340   59.3200  135.1810 C.cat  70  ARG70       0.5346
     59  NH1      -55.8840   59.0930  134.8000 N.pl3  70  ARG70       0.1354
     60  NH2      -53.8460   60.0780  134.4270 N.pl3  70  ARG70       0.1354
     61  N        -52.5200   60.6540  143.7780 N.3    95  LYS95      -0.1245
     62  CA       -53.7310   59.8530  143.7300 C.3    95  LYS95       0.1561
     63  C        -53.6660   58.6470  144.6610 C.2    95  LYS95       0.2260
     64  O        -54.6370   58.3450  145.3540 O.2    95  LYS95      -0.2867
     65  CB       -53.9770   59.3390  142.3070 C.3    95  LYS95       0.0271
     66  CG       -53.9570   60.3860  141.2250 C.3    95  LYS95       0.0035
     67  CD       -55.2130   61.2160  141.2170 C.3    95  LYS95       0.0206
     68  CE       -55.1490   62.2160  140.0780 C.3    95  LYS95       0.1093
     69  NZ       -56.4450   62.8900  139.8300 N.3    95  LYS95      -0.1314
     70  N        -58.8140   57.9720  120.6340 N.3   387  ASP387     -0.1225
     71  CA       -58.1710   57.9340  121.9600 C.3   387  ASP387      0.1805
     72  C        -58.8930   56.9690  122.9150 C.2   387  ASP387      0.2597
     73  O        -60.0530   56.6150  122.7110 O.2   387  ASP387     -0.2718
     74  CB       -58.1270   59.3330  122.6180 C.3   387  ASP387      0.1424
     75  CG       -57.1310   60.2850  121.9490 C.2   387  ASP387      0.3668
     76  OD1      -55.9650   59.9020  121.7110 O.co2 387  ASP387     -0.2456
     77  OD2      -57.5030   61.4440  121.6800 O.co2 387  ASP387     -0.2456
     78  N        -58.1930   56.5470  123.9600 N.am  388  LEU388     -0.1979
     79  CA       -58.7590   55.6520  124.9600 C.3   388  LEU388      0.1596
     80  C        -59.3310   54.3660  124.3790 C.2   388  LEU388      0.2287
     81  O        -60.3550   53.8740  124.8390 O.2   388  LEU388     -0.2864
     82  CB       -59.8300   56.3880  125.7700 C.3   388  LEU388      0.0297
     83  CG       -59.3680   57.7400  126.3250 C.3   388  LEU388      0.0022
     84  CD1      -60.5360   58.4490  126.9500 C.3   388  LEU388      0.0001
     85  CD2      -58.2430   57.5430  127.3240 C.3   388  LEU388      0.0001
     86  N        -62.0040   56.3250  131.6850 N.3   407  ILE407     -0.1245
     87  CA       -61.3440   57.3310  132.5200 C.3   407  ILE407      0.1561
     88  C        -61.9360   57.3560  133.9200 C.2   407  ILE407      0.2260
     89  O        -62.8300   58.1470  134.1930 O.2   407  ILE407     -0.2867
     90  CB       -61.5250   58.7590  131.9580 C.3   407  ILE407      0.0252
     91  CG1      -60.9320   58.8750  130.5610 C.3   407  ILE407      0.0019
     92  CG2      -60.8600   59.7680  132.8830 C.3   407  ILE407      0.0019
     93  CD1      -61.2340   60.2100  129.9200 C.3   407  ILE407      0.0001
     94  N        -62.0330   58.2990  137.7900 N.3   409  GLN409     -0.1245
     95  CA       -61.5200   59.4650  138.4930 C.3   409  GLN409      0.1566
     96  C        -61.0160   59.0930  139.8800 C.2   409  GLN409      0.2260
     97  O        -61.6530   58.3240  140.6010 O.2   409  GLN409     -0.2867
     98  CB       -62.6070   60.5440  138.6080 C.3   409  GLN409      0.0367
     99  CG       -62.9720   61.2440  137.2920 C.3   409  GLN409      0.0905
    100  CD       -61.8360   62.0920  136.7240 C.2   409  GLN409      0.2608
    101  OE1      -61.9750   62.7230  135.6730 O.2   409  GLN409     -0.2717
    102  NE2      -60.7070   62.1080  137.4200 N.am  409  GLN409     -0.0878
@<TRIPOS>BOND
     1     5     2    1
     2    70    71    1
     3     2     1    1
     4     2     3    1
     5    23    21    1
     6    77    75   ar
     7    76    75   ar
     8     3     6   am
     9     3     4    2
    10    75    74    1
    11    12    10    1
    12    71    74    1
    13    71    72    1
    14     6     7    1
    15     9     8    2
    16    73    72    2
    17    21    22    1
    18    21    18    1
    19    72    78   am
    20     7    10    1
    21     7     8    1
    22    10    11    1
    23     8    13   am
    24    18    17    1
    25    18    19    1
    26    78    79    1
    27    17    15   am
    28    80    81    2
    29    80    79    1
    30    15    16    2
    31    15    14    1
    32    13    14    1
    33    20    19    2
    34    79    82    1
    35    36    35    1
    36    19    24   am
    37    82    83    1
    38    24    25    1
    39    35    34    1
    40    83    84    1
    41    83    85    1
    42    34    33    1
    43    33    32    1
    44    25    26    1
    45    28    26   am
    46    28    29    1
    47    26    27    2
    48    32    29    1
    49    29    30    1
    50    93    91    1
    51    30    37   am
    52    30    31    2
    53    37    38    1
    54    91    90    1
    55    49    47    1
    56    47    48    1
    57    47    44    1
    58    42    41    1
    59    86    87    1
    60    43    44    1
    61    43    39   am
    62    38    41    1
    63    38    39    1
    64    90    87    1
    65    90    92    1
    66    44    45    1
    67    39    40    2
    68    45    46    2
    69    87    88    1
    70    88    89    2
    71    60    58    1
    72    59    58    1
    73    58    57    2
    74    50    51    1
    75   101   100    2
    76    57    56    1
    77    54    51    1
    78    54    55    1
    79    51    52    1
    80   100    99    1
    81   100   102   am
    82    52    53    2
    83    56    55    1
    84    99    98    1
    85    94    95    1
    86    95    98    1
    87    95    96    1
    88    69    68    1
    89    96    97    2
    90    68    67    1
    91    67    66    1
    92    66    65    1
    93    65    62    1
    94    62    61    1
    95    62    63    1
    96    63    64    2
