@<TRIPOS>MOLECULE
tmp/1glcB00.pdb
 135 129 0 0 0
SMALL
GASTEIGER

@<TRIPOS>ATOM
      1  N         29.9790   54.2080   13.9220 N.3     7  ASP7       -0.1239
      2  CA        28.9640   53.1740   13.6180 C.3     7  ASP7        0.1674
      3  C         28.5560   53.3170   12.1530 C.2     7  ASP7        0.2266
      4  O         27.9070   54.2780   11.7500 O.2     7  ASP7       -0.2867
      5  CB        27.7100   53.3070   14.4910 C.3     7  ASP7        0.1410
      6  CG        26.7550   52.1330   14.3920 C.2     7  ASP7        0.3668
      7  OD1       26.7090   51.5230   13.2180 O.co2   7  ASP7       -0.2456
      8  OD2       26.0230   51.8250   15.3110 O.co2   7  ASP7       -0.2456
      9  N         26.2960   51.8070    9.6160 N.3     9  GLY9       -0.1210
     10  CA        25.1430   50.9350    9.4320 C.3     9  GLY9        0.1956
     11  C         24.5550   50.7440    8.0280 C.2     9  GLY9        0.2612
     12  O         25.0430   51.3850    7.0660 O.2     9  GLY9       -0.2717
     13  N         23.5000   49.8200    7.9490 N.am   10  THR10      -0.1952
     14  CA        22.8450   49.5080    6.7070 C.3    10  THR10       0.1897
     15  C         22.2850   50.7400    5.9960 C.2    10  THR10       0.2313
     16  O         22.5320   51.0110    4.7920 O.2    10  THR10      -0.2863
     17  CB        21.9890   48.2380    6.6600 C.3    10  THR10       0.1794
     18  OG1       22.7140   47.1000    7.1630 O.3    10  THR10      -0.2208
     19  CG2       21.6090   47.9580    5.2010 C.3    10  THR10       0.0378
     20  N         27.3810   56.7710   11.2990 N.3    14  ARG14      -0.1245
     21  CA        27.4170   57.7680   12.3250 C.3    14  ARG14       0.1563
     22  C         28.7500   57.9990   13.0330 C.2    14  ARG14       0.2260
     23  O         29.7420   57.3250   12.7690 O.2    14  ARG14      -0.2867
     24  CB        26.1480   57.8300   13.1610 C.3    14  ARG14       0.0307
     25  CG        26.1320   57.0190   14.4580 C.3    14  ARG14       0.0489
     26  CD        24.7550   56.4220   14.7710 C.3    14  ARG14       0.2205
     27  NE        24.2010   55.7500   13.5910 N.pl3  14  ARG14      -0.0865
     28  CZ        24.0230   54.4230   13.4280 C.cat  14  ARG14       0.5346
     29  NH1       24.3310   53.5430   14.3910 N.pl3  14  ARG14       0.1354
     30  NH2       23.5380   53.9400   12.2610 N.pl3  14  ARG14       0.1354
     31  N         28.1460   47.3810    9.7660 N.3    79  GLN79      -0.1231
     32  CA        27.2260   46.4360    9.2370 C.3    79  GLN79       0.1698
     33  C         27.8920   45.1290    8.8470 C.2    79  GLN79       0.2592
     34  O         28.9240   45.0930    8.1850 O.2    79  GLN79      -0.2718
     35  CB        26.4900   47.0530    8.0730 C.3    79  GLN79       0.0381
     36  CG        27.3560   47.8450    7.0900 C.3    79  GLN79       0.0905
     37  CD        26.6620   47.7950    5.7400 C.2    79  GLN79       0.2608
     38  OE1       26.3050   46.6840    5.2480 O.2    79  GLN79      -0.2717
     39  NE2       26.2490   48.9860    5.2880 N.am   79  GLN79      -0.0878
     40  N         27.2760   44.0190    9.2110 N.am   80  ARG80      -0.1966
     41  CA        27.9340   42.7730    8.9610 C.3    80  ARG80       0.1729
     42  C         27.7370   42.1590    7.5920 C.2    80  ARG80       0.2616
     43  O         26.9200   42.6060    6.8420 O.2    80  ARG80      -0.2715
     44  CB        27.6900   41.7870   10.1080 C.3    80  ARG80       0.0348
     45  CG        28.1960   42.2840   11.4740 C.3    80  ARG80       0.0492
     46  CD        27.0990   42.4220   12.5140 C.3    80  ARG80       0.2205
     47  NE        26.8260   41.1850   13.2200 N.pl3  80  ARG80      -0.0865
     48  CZ        25.6610   40.6020   13.3060 C.cat  80  ARG80       0.5346
     49  NH1       24.5870   41.0800   12.6870 N.pl3  80  ARG80       0.1354
     50  NH2       25.5930   39.4860   14.0200 N.pl3  80  ARG80       0.1354
     51  N         28.5160   41.1130    7.3300 N.am   81  GLU81      -0.1977
     52  CA        28.4680   40.3190    6.1570 C.3    81  GLU81       0.1602
     53  C         28.8280   41.0950    4.8520 C.2    81  GLU81       0.2287
     54  O         29.5020   40.6000    3.9170 O.2    81  GLU81      -0.2864
     55  CB        27.0710   39.6490    6.1320 C.3    81  GLU81       0.0415
     56  CG        26.8560   38.4890    7.1090 C.3    81  GLU81       0.1163
     57  CD        26.3330   38.9680    8.4420 C.2    81  GLU81       0.3649
     58  OE1       25.8470   40.1760    8.3840 O.co2  81  GLU81      -0.2457
     59  OE2       26.2130   38.2560    9.4270 O.co2  81  GLU81      -0.2457
     60  N         24.3430   42.4460    3.1230 N.3   100  TRP100     -0.1241
     61  CA        23.9300   41.2740    3.8270 C.3   100  TRP100      0.1605
     62  C         22.5450   40.7710    3.3340 C.2   100  TRP100      0.2264
     63  O         22.3610   39.5980    3.0830 O.2   100  TRP100     -0.2867
     64  CB        24.0490   41.5540    5.3350 C.3   100  TRP100      0.0550
     65  CG        23.4160   42.8340    5.7990 C.ar  100  TRP100      0.0003
     66  CD1       23.9560   44.0580    5.8880 C.ar  100  TRP100      0.0946
     67  CD2       22.1340   42.9340    6.3480 C.ar  100  TRP100      0.0152
     68  NE1       23.0750   44.9510    6.4840 N.ar  100  TRP100     -0.2442
     69  CE2       21.9410   44.2650    6.7700 C.ar  100  TRP100      0.0810
     70  CE3       21.1170   42.0070    6.4910 C.ar  100  TRP100      0.0012
     71  CZ2       20.7250   44.6880    7.2670 C.ar  100  TRP100      0.0191
     72  CZ3       19.9320   42.4000    7.0520 C.ar  100  TRP100      0.0001
     73  CH2       19.7450   43.7430    7.4050 C.ar  100  TRP100      0.0015
     74  N         23.0600   35.3410    3.0070 N.3   132  TYR132     -0.1241
     75  CA        23.2100   36.3770    4.0150 C.3   132  TYR132      0.1605
     76  C         24.6770   36.6850    4.2410 C.2   132  TYR132      0.2264
     77  O         25.0400   37.8560    4.3510 O.2   132  TYR132     -0.2867
     78  CB        22.6300   35.8270    5.3480 C.3   132  TYR132      0.0534
     79  CG        22.7630   36.7150    6.5670 C.ar  132  TYR132     -0.0201
     80  CD1       23.0240   38.0860    6.4660 C.ar  132  TYR132     -0.0009
     81  CD2       22.5320   36.1940    7.8430 C.ar  132  TYR132     -0.0009
     82  CE1       23.0470   38.9110    7.6020 C.ar  132  TYR132      0.0417
     83  CE2       22.5860   36.9900    8.9970 C.ar  132  TYR132      0.0417
     84  CZ        22.8260   38.3640    8.8760 C.ar  132  TYR132      0.1957
     85  OH        22.8540   39.1420   10.0330 O.3   132  TYR132     -0.2866
     86  N         28.4200   45.3400   14.4290 N.3   235  ASP235     -0.1225
     87  CA        27.4560   46.1130   15.1750 C.3   235  ASP235      0.1805
     88  C         26.5730   45.4430   16.2460 C.2   235  ASP235      0.2597
     89  O         26.4990   45.8780   17.4040 O.2   235  ASP235     -0.2718
     90  CB        26.7140   46.9930   14.1950 C.3   235  ASP235      0.1424
     91  CG        25.8960   46.4450   13.0360 C.2   235  ASP235      0.3668
     92  OD1       25.5190   45.2090   12.9780 O.co2 235  ASP235     -0.2456
     93  OD2       25.5120   47.5310   12.3210 O.co2 235  ASP235     -0.2456
     94  N         25.9990   44.2990   15.9070 N.am  236  GLN236     -0.1979
     95  CA        25.1750   43.5250   16.8080 C.3   236  GLN236      0.1601
     96  C         25.8980   43.1580   18.0970 C.2   236  GLN236      0.2287
     97  O         25.3480   43.2600   19.2100 O.2   236  GLN236     -0.2864
     98  CB        24.4600   42.3290   16.1060 C.3   236  GLN236      0.0394
     99  CG        23.4440   42.7960   15.0380 C.3   236  GLN236      0.0908
    100  CD        22.5520   43.8260   15.6150 C.2   236  GLN236      0.2608
    101  OE1       21.9500   43.5900   16.6660 O.2   236  GLN236     -0.2717
    102  NE2       22.5550   44.9940   15.0010 N.am  236  GLN236     -0.0878
    103  N         18.0450   44.2740   19.2030 N.3   254  THR254     -0.1218
    104  CA        18.2820   45.5350   18.5190 C.3   254  THR254      0.1862
    105  C         17.3310   45.7600   17.3900 C.2   254  THR254      0.2287
    106  O         17.1830   44.9310   16.4790 O.2   254  THR254     -0.2866
    107  CB        19.7090   45.7530   17.9910 C.3   254  THR254      0.1770
    108  OG1       20.6320   45.7240   19.0480 O.3   254  THR254     -0.2211
    109  CG2       19.7370   47.1260   17.3330 C.3   254  THR254      0.0375
    110  N         16.7670   48.0170   14.4740 N.3   256  GLY256     -0.1210
    111  CA        17.2710   48.9350   13.5020 C.3   256  GLY256      0.1956
    112  C         16.7610   48.5880   12.1520 C.2   256  GLY256      0.2613
    113  O         15.6200   48.2820   12.0260 O.2   256  GLY256     -0.2717
    114  N         17.6080   48.7130   11.1800 N.am  257  THR257     -0.1938
    115  CA        17.2900   48.3580    9.8510 C.3   257  THR257      0.2028
    116  C         16.7450   46.9600    9.9020 C.2   257  THR257      0.2642
    117  O         15.6720   46.7050    9.4120 O.2   257  THR257     -0.2714
    118  CB        18.5650   48.4840    9.0390 C.3   257  THR257      0.1808
    119  OG1       18.8210   49.8890    8.9340 O.3   257  THR257     -0.2208
    120  CG2       18.4410   47.7760    7.7000 C.3   257  THR257      0.0379
    121  N         17.3430   46.1120   10.7020 N.am  258  GLY258     -0.1954
    122  CA        16.8210   44.7680   10.8500 C.3   258  GLY258      0.1869
    123  C         16.6850   44.5930   12.3320 C.2   258  GLY258      0.2309
    124  O         16.8430   45.5310   13.0730 O.2   258  GLY258     -0.2863
    125  N         18.2500   42.1800   15.5000 N.3   260  PHE260     -0.1241
    126  CA        19.1850   41.1050   15.8240 C.3   260  PHE260      0.1605
    127  C         19.1350   40.9220   17.2850 C.2   260  PHE260      0.2264
    128  O         19.2790   41.8900   18.0830 O.2   260  PHE260     -0.2867
    129  CB        20.6040   41.4810   15.4400 C.3   260  PHE260      0.0534
    130  CG        20.5160   41.9070   14.0320 C.ar  260  PHE260     -0.0203
    131  CD1       20.4690   40.9250   13.0450 C.ar  260  PHE260     -0.0042
    132  CD2       20.2100   43.2270   13.6890 C.ar  260  PHE260     -0.0042
    133  CE1       20.3430   41.2740   11.6970 C.ar  260  PHE260     -0.0003
    134  CE2       20.0370   43.5950   12.3490 C.ar  260  PHE260     -0.0003
    135  CZ        20.1120   42.6090   11.3610 C.ar  260  PHE260     -0.0000
@<TRIPOS>BOND
     1    74    75    1
     2    63    62    2
     3    60    61    1
     4    62    61    1
     5    61    64    1
     6    54    53    2
     7    75    76    1
     8    75    78    1
     9    76    77    2
    10    16    15    2
    11    53    52    1
    12    19    17    1
    13    38    37    2
    14    39    37   am
    15    64    65    1
    16    78    79    1
    17    37    36    1
    18    65    66   ar
    19    65    67   ar
    20    66    68   ar
    21    15    14    1
    22    55    52    1
    23    55    56    1
    24    52    51    1
    25    67    70   ar
    26    67    69   ar
    27    80    79   ar
    28    80    82   ar
    29    68    69   ar
    30    70    72   ar
    31    79    81   ar
    32    17    14    1
    33    17    18    1
    34    14    13    1
    35    69    71   ar
    36    43    42    2
    37    72    73   ar
    38    12    11    2
    39    36    35    1
    40    56    57    1
    41    71    73   ar
    42    51    42   am
    43    42    41    1
    44    82    84   ar
    45   120   118    1
    46    81    83   ar
    47    13    11   am
    48    11    10    1
    49    35    32    1
    50    34    33    2
    51    58    57   ar
    52    57    59   ar
    53    33    40   am
    54    33    32    1
    55    84    83   ar
    56    84    85    1
    57   119   118    1
    58    41    40    1
    59    41    44    1
    60   118   115    1
    61    32    31    1
    62   117   116    2
    63    10     9    1
    64   115   116    1
    65   115   114    1
    66   116   121   am
    67    44    45    1
    68   121   122    1
    69   122   123    1
    70   114   112   am
    71    20    21    1
    72   135   133   ar
    73   135   134   ar
    74    45    46    1
    75   133   131   ar
    76     4     3    2
    77   113   112    2
    78   112   111    1
    79     3     2    1
    80    30    28    1
    81    93    91   ar
    82    21    22    1
    83    21    24    1
    84   123   124    2
    85   134   132   ar
    86    46    47    1
    87    49    48    1
    88    23    22    2
    89    92    91   ar
    90    91    90    1
    91   131   130   ar
    92    24    25    1
    93     7     6   ar
    94    47    48    2
    95    48    50    1
    96    28    27    2
    97    28    29    1
    98   111   110    1
    99    27    26    1
   100     2     1    1
   101     2     5    1
   102   132   130   ar
   103   130   129    1
   104    90    87    1
   105     6     5    1
   106     6     8   ar
   107    86    87    1
   108    25    26    1
   109   102   100   am
   110    99   100    1
   111    99    98    1
   112    87    88    1
   113   129   126    1
   114   125   126    1
   115   100   101    2
   116   126   127    1
   117    94    88   am
   118    94    95    1
   119    98    95    1
   120    88    89    2
   121   106   105    2
   122    95    96    1
   123   127   128    2
   124   109   107    1
   125   105   104    1
   126   107   104    1
   127   107   108    1
   128    96    97    2
   129   104   103    1
