@<TRIPOS>MOLECULE
tmp/1glfB00.pdb
 178 165 0 0 0
SMALL
GASTEIGER

@<TRIPOS>ATOM
      1  N         -3.8410   -5.8880   -8.9040 N.3    11  GLY11      -0.1210
      2  CA        -4.3760   -5.9530   -7.5810 C.3    11  GLY11       0.1956
      3  C         -4.4110   -4.6590   -6.8500 C.2    11  GLY11       0.2613
      4  O         -3.8610   -3.6600   -7.3340 O.2    11  GLY11      -0.2717
      5  N         -4.9760   -4.7570   -5.6300 N.am   12  THR12      -0.1938
      6  CA        -5.0870   -3.6450   -4.7100 C.3    12  THR12       0.2028
      7  C         -3.7540   -3.0790   -4.2450 C.2    12  THR12       0.2643
      8  O         -3.5900   -1.9080   -3.8310 O.2    12  THR12      -0.2714
      9  CB        -6.1180   -3.8140   -3.5980 C.3    12  THR12       0.1808
     10  OG1       -7.3900   -4.4390   -4.0340 O.3    12  THR12      -0.2208
     11  CG2       -6.3240   -2.3750   -3.1140 C.3    12  THR12       0.0379
     12  N         -2.7250   -3.8690   -4.4030 N.am   13  THR13      -0.1936
     13  CA        -1.4930   -3.3320   -3.9380 C.3    13  THR13       0.2028
     14  C         -0.3830   -3.3440   -5.0020 C.2    13  THR13       0.2639
     15  O          0.5500   -2.5490   -5.0200 O.2    13  THR13      -0.2714
     16  CB        -1.2450   -4.1480   -2.6490 C.3    13  THR13       0.1808
     17  OG1       -1.8950   -3.6050   -1.5060 O.3    13  THR13      -0.2208
     18  CG2        0.1970   -4.5520   -2.4690 C.3    13  THR13       0.0379
     19  N         -0.4700   -4.2690   -5.9110 N.am   14  SER14      -0.2003
     20  CA         0.4980   -4.3620   -6.9590 C.3    14  SER14       0.1610
     21  C         -0.1500   -4.8640   -8.2640 C.3    14  SER14       0.2063
     22  O         -1.2420   -5.5450   -8.2750 O.3    14  SER14      -0.2184
     23  CB         1.5960   -5.3070   -6.5200 C.3    14  SER14       0.2063
     24  OG         0.9800   -6.5080   -6.1050 O.3    14  SER14      -0.2184
     25  N          0.5250   -7.0070  -11.7170 N.3    16  ARG16      -0.1245
     26  CA         1.2410   -8.1710  -12.1690 C.3    16  ARG16       0.1563
     27  C          0.9960   -8.5260  -13.6190 C.2    16  ARG16       0.2260
     28  O         -0.0090   -8.1980  -14.2510 O.2    16  ARG16      -0.2867
     29  CB         0.7370   -9.3760  -11.3920 C.3    16  ARG16       0.0307
     30  CG         1.5330   -9.6660  -10.1490 C.3    16  ARG16       0.0489
     31  CD         0.8560   -9.1110   -8.9250 C.3    16  ARG16       0.2205
     32  NE        -0.0750  -10.0650   -8.3560 N.pl3  16  ARG16      -0.0865
     33  CZ        -1.1780   -9.6650   -7.7330 C.cat  16  ARG16       0.5346
     34  NH1       -1.5160   -8.3690   -7.5950 N.pl3  16  ARG16       0.1354
     35  NH2       -1.9720  -10.5830   -7.2290 N.pl3  16  ARG16       0.1354
     36  N        -10.6230  -10.8870  -10.1810 N.3   244  ASP244     -0.1225
     37  CA        -9.6070  -11.8090   -9.6710 C.3   244  ASP244      0.1805
     38  C        -10.1930  -12.8870   -8.6950 C.2   244  ASP244      0.2597
     39  O         -9.7790  -14.0570   -8.7100 O.2   244  ASP244     -0.2718
     40  CB        -8.5870  -10.9590   -8.9160 C.3   244  ASP244      0.1424
     41  CG        -9.2750  -10.0620   -7.8920 C.2   244  ASP244      0.3668
     42  OD1      -10.5210  -10.1240   -7.6270 O.co2 244  ASP244     -0.2456
     43  OD2       -8.4030   -9.2000   -7.3340 O.co2 244  ASP244     -0.2456
     44  N        -11.1820  -12.5280   -7.8550 N.am  245  GLN245     -0.1979
     45  CA       -11.6900  -13.5570   -6.9640 C.3   245  GLN245      0.1601
     46  C        -12.3160  -14.6760   -7.6980 C.2   245  GLN245      0.2287
     47  O        -12.0500  -15.8580   -7.4360 O.2   245  GLN245     -0.2864
     48  CB       -12.6160  -13.0770   -5.8320 C.3   245  GLN245      0.0394
     49  CG       -11.9130  -12.2070   -4.7370 C.3   245  GLN245      0.0908
     50  CD       -10.5240  -12.6810   -4.4040 C.2   245  GLN245      0.2608
     51  OE1      -10.2920  -13.8690   -4.0290 O.2   245  GLN245     -0.2717
     52  NE2       -9.6250  -11.7110   -4.4580 N.am  245  GLN245     -0.0878
     53  N         -9.0430  -17.3900   -0.7100 N.3   263  THR263     -0.1218
     54  CA        -7.9760  -16.6450   -1.1620 C.3   263  THR263      0.1862
     55  C         -7.5590  -15.6010   -0.1870 C.2   263  THR263      0.2287
     56  O         -8.2920  -14.6830    0.2040 O.2   263  THR263     -0.2866
     57  CB        -8.3890  -15.9020   -2.4320 C.3   263  THR263      0.1770
     58  OG1       -8.5700  -16.7820   -3.5250 O.3   263  THR263     -0.2211
     59  CG2       -7.3090  -14.8970   -2.7270 C.3   263  THR263      0.0375
     60  N         -5.3570  -12.5190    0.3160 N.3   265  GLY265     -0.1210
     61  CA        -4.4530  -11.5130   -0.2310 C.3   265  GLY265      0.1956
     62  C         -4.4160  -10.2270    0.5110 C.2   265  GLY265      0.2612
     63  O         -4.0800  -10.2230    1.6750 O.2   265  GLY265     -0.2717
     64  N         -4.6860   -9.1280   -0.2010 N.am  266  THR266     -0.1952
     65  CA        -4.6750   -7.8380    0.4590 C.3   266  THR266      0.1897
     66  C         -5.9220   -7.8270    1.3270 C.2   266  THR266      0.2313
     67  O         -6.0700   -7.1140    2.2900 O.2   266  THR266     -0.2863
     68  CB        -4.5670   -6.6290   -0.5260 C.3   266  THR266      0.1794
     69  OG1       -3.1980   -6.2970   -0.8760 O.3   266  THR266     -0.2208
     70  CG2       -5.2230   -5.4180    0.1300 C.3   266  THR266      0.0378
     71  N         -3.8480   -9.6590    4.0280 N.3   309  GLY309     -0.1210
     72  CA        -2.4850   -9.2810    3.7460 C.3   309  GLY309      0.1956
     73  C         -2.2430   -7.8290    4.0820 C.2   309  GLY309      0.2611
     74  O         -1.1590   -7.4680    4.5860 O.2   309  GLY309     -0.2717
     75  N         -3.2600   -6.9810    3.8550 N.am  310  ALA310     -0.1979
     76  CA        -3.0070   -5.5470    4.1560 C.3   310  ALA310      0.1597
     77  C         -2.5690   -5.1730    5.6140 C.2   310  ALA310      0.2287
     78  O         -1.8320   -4.1620    5.8600 O.2   310  ALA310     -0.2864
     79  CB        -4.0730   -4.6030    3.6650 C.3   310  ALA310      0.0319
     80  N         -0.6710   -6.9240    7.6810 N.3   312  ILE312     -0.1231
     81  CA         0.7400   -7.0710    7.8070 C.3   312  ILE312      0.1692
     82  C          1.4690   -5.8840    7.1840 C.2   312  ILE312      0.2591
     83  O          2.4600   -5.3510    7.7110 O.2   312  ILE312     -0.2718
     84  CB         1.2030   -8.3070    7.0580 C.3   312  ILE312      0.0266
     85  CG1        0.6910   -9.6170    7.6600 C.3   312  ILE312      0.0019
     86  CG2        2.7360   -8.2990    6.9800 C.3   312  ILE312      0.0020
     87  CD1       -0.6670   -9.9440    7.0850 C.3   312  ILE312      0.0001
     88  N          1.0190   -5.5240    5.9850 N.am  313  GLN313     -0.1979
     89  CA         1.6380   -4.4190    5.2990 C.3   313  GLN313      0.1601
     90  C          1.5880   -3.1680    6.1650 C.2   313  GLN313      0.2287
     91  O          2.4420   -2.2770    6.0980 O.2   313  GLN313     -0.2864
     92  CB         1.0990   -4.2320    3.8660 C.3   313  GLN313      0.0394
     93  CG         1.2790   -2.8150    3.2400 C.3   313  GLN313      0.0908
     94  CD         1.2220   -2.8310    1.7080 C.2   313  GLN313      0.2608
     95  OE1        0.9730   -1.7900    1.0530 O.2   313  GLN313     -0.2717
     96  NE2        1.4350   -4.0310    1.1370 N.am  313  GLN313     -0.0878
     97  N          7.2490   -8.6910    5.0510 N.3   325  ALA325     -0.1231
     98  CA         6.0590   -9.4830    5.2320 C.3   325  ALA325      0.1694
     99  C          6.3630  -10.9460    5.3980 C.2   325  ALA325      0.2592
    100  O          5.6390  -11.6890    6.0430 O.2   325  ALA325     -0.2718
    101  CB         5.1690   -9.3130    4.0090 C.3   325  ALA325      0.0304
    102  N          7.4450  -11.3980    4.8230 N.am  326  TYR326     -0.1976
    103  CA         7.6310  -12.7990    4.9790 C.3   326  TYR326      0.1639
    104  C          8.0480  -13.1360    6.3920 C.2   326  TYR326      0.2290
    105  O          7.9080  -14.2850    6.8320 O.2   326  TYR326     -0.2864
    106  CB         8.5400  -13.3670    3.8890 C.3   326  TYR326      0.0560
    107  CG         9.1780  -14.7280    4.1830 C.ar  326  TYR326     -0.0198
    108  CD1       10.4450  -14.8180    4.7760 C.ar  326  TYR326     -0.0009
    109  CD2        8.5750  -15.9260    3.7750 C.ar  326  TYR326     -0.0009
    110  CE1       11.0810  -16.0510    4.9830 C.ar  326  TYR326      0.0417
    111  CE2        9.1950  -17.1690    3.9700 C.ar  326  TYR326      0.0417
    112  CZ        10.4540  -17.2380    4.5800 C.ar  326  TYR326      0.1957
    113  OH        11.0780  -18.4630    4.7640 O.3   326  TYR326     -0.2866
    114  N          6.9020  -12.1000    9.3530 N.3   328  SER328     -0.1202
    115  CA         5.7250  -12.3960   10.0900 C.3   328  SER328      0.2020
    116  C          5.7420  -13.7120   10.7940 C.2   328  SER328      0.2618
    117  O          5.4240  -13.8690   11.9670 O.2   328  SER328     -0.2717
    118  CB         4.7160  -12.6530    8.9990 C.3   328  SER328      0.2103
    119  OG         4.1290  -11.4280    8.7160 O.3   328  SER328     -0.2182
    120  N          6.0160  -14.6800    9.9570 N.am  329  GLU329     -0.1979
    121  CA         6.0440  -16.0230   10.4170 C.3   329  GLU329      0.1602
    122  C          7.0190  -16.1050   11.5670 C.2   329  GLU329      0.2287
    123  O          6.6170  -16.3510   12.6750 O.2   329  GLU329     -0.2864
    124  CB         6.3800  -16.9860    9.2800 C.3   329  GLU329      0.0415
    125  CG         6.3740  -18.4340    9.7720 C.3   329  GLU329      0.1163
    126  CD         5.7560  -19.3900    8.7840 C.2   329  GLU329      0.3649
    127  OE1        4.6610  -19.2260    8.3030 O.co2 329  GLU329     -0.2457
    128  OE2        6.5160  -20.4120    8.4900 O.co2 329  GLU329     -0.2457
    129  N         -1.7500  -11.9010   12.5380 N.3   380  LEU380     -0.1245
    130  CA        -1.9140  -13.1240   11.8040 C.3   380  LEU380      0.1561
    131  C         -3.2050  -13.7860   12.1550 C.2   380  LEU380      0.2260
    132  O         -4.0410  -13.9270   11.3020 O.2   380  LEU380     -0.2867
    133  CB        -0.7330  -14.1090   11.8640 C.3   380  LEU380      0.0270
    134  CG         0.4900  -13.4200   11.2530 C.3   380  LEU380      0.0019
    135  CD1        1.7470  -14.3050   11.1140 C.3   380  LEU380      0.0001
    136  CD2        0.0330  -12.8760    9.9180 C.3   380  LEU380      0.0001
    137  N         -6.7710  -12.9470   10.7280 N.3   383  ILE383     -0.1245
    138  CA        -7.0540  -13.4820    9.4010 C.3   383  ILE383      0.1561
    139  C         -7.8130  -14.7760    9.5680 C.2   383  ILE383      0.2260
    140  O         -8.9800  -14.8830    9.1560 O.2   383  ILE383     -0.2867
    141  CB        -5.8100  -13.5880    8.4920 C.3   383  ILE383      0.0252
    142  CG1       -5.2670  -12.2200    8.1160 C.3   383  ILE383      0.0019
    143  CG2       -6.0950  -14.3270    7.1970 C.3   383  ILE383      0.0019
    144  CD1       -3.7240  -12.2510    8.1030 C.3   383  ILE383      0.0001
    145  N         -3.5250  -17.3930   -2.4830 N.3   409  GLY409     -0.1210
    146  CA        -3.2730  -15.9830   -2.4200 C.3   409  GLY409      0.1956
    147  C         -1.8410  -15.8160   -2.0230 C.2   409  GLY409      0.2612
    148  O         -1.1730  -16.8180   -1.6820 O.2   409  GLY409     -0.2717
    149  N         -1.4110  -14.5590   -2.0190 N.am  410  GLY410     -0.1942
    150  CA        -0.0500  -14.2060   -1.6180 C.3   410  GLY410      0.2014
    151  C          0.3110  -14.5780   -0.1740 C.2   410  GLY410      0.2638
    152  O          1.4390  -14.9750    0.1320 O.2   410  GLY410     -0.2714
    153  N         -0.6370  -14.4630    0.7370 N.am  411  ALA411     -0.1977
    154  CA        -0.2780  -14.8080    2.0900 C.3   411  ALA411      0.1597
    155  C         -0.2770  -16.2810    2.3860 C.2   411  ALA411      0.2287
    156  O          0.1700  -16.7210    3.4410 O.2   411  ALA411     -0.2864
    157  CB        -1.0370  -13.9920    3.1050 C.3   411  ALA411      0.0319
    158  N          1.6930  -18.2550    1.8840 N.3   413  ALA413     -0.1231
    159  CA         3.0250  -18.7420    2.1320 C.3   413  ALA413      0.1694
    160  C          3.2130  -18.9420    3.6390 C.2   413  ALA413      0.2592
    161  O          3.7350  -19.9690    4.0780 O.2   413  ALA413     -0.2718
    162  CB         4.0950  -17.9000    1.4600 C.3   413  ALA413      0.0304
    163  N          2.7180  -17.9810    4.4280 N.am  414  ASN414     -0.1974
    164  CA         2.7740  -18.0710    5.8850 C.3   414  ASN414      0.1688
    165  C          2.2160  -19.3910    6.4060 C.2   414  ASN414      0.2292
    166  O          0.9810  -19.6300    6.4120 O.2   414  ASN414     -0.2864
    167  CB         2.0520  -16.9020    6.5530 C.3   414  ASN414      0.1181
    168  CG         2.6830  -16.5800    7.8760 C.2   414  ASN414      0.2629
    169  OD1        3.2800  -15.4910    8.0560 O.2   414  ASN414     -0.2716
    170  ND2        2.5430  -17.5430    8.7990 N.am  414  ASN414     -0.0877
    171  N          0.3120  -19.1920    9.7120 N.3   417  LEU417     -0.1245
    172  CA        -1.0410  -18.7800    9.4870 C.3   417  LEU417      0.1561
    173  C         -1.9110  -19.9220    8.9900 C.2   417  LEU417      0.2260
    174  O         -3.0730  -20.1100    9.4260 O.2   417  LEU417     -0.2867
    175  CB        -0.9510  -17.6040    8.5060 C.3   417  LEU417      0.0270
    176  CG        -2.2680  -16.9320    8.1490 C.3   417  LEU417      0.0019
    177  CD1       -2.8060  -17.6450    6.9540 C.3   417  LEU417      0.0001
    178  CD2       -3.2880  -16.9240    9.2920 C.3   417  LEU417      0.0001
@<TRIPOS>BOND
     1    28    27    2
     2    27    26    1
     3    26    25    1
     4    26    29    1
     5    29    30    1
     6    36    37    1
     7    30    31    1
     8    37    40    1
     9    37    38    1
    10    31    32    1
    11    40    41    1
    12     1     2    1
    13    39    38    2
    14    38    44   am
    15    32    33    2
    16    22    21    1
    17    21    20    1
    18    41    42   ar
    19    41    43   ar
    20    44    45    1
    21    33    34    1
    22    33    35    1
    23    46    47    2
    24    46    45    1
    25     2     3    1
    26     4     3    2
    27    45    48    1
    28    20    23    1
    29    20    19    1
    30     3     5   am
    31    23    24    1
    32    19    14   am
    33    48    49    1
    34     5     6    1
    35    15    14    2
    36    14    13    1
    37    49    50    1
    38     6     7    1
    39     6     9    1
    40    52    50   am
    41    50    51    2
    42    12     7   am
    43    12    13    1
    44     7     8    2
    45    10     9    1
    46    13    16    1
    47     9    11    1
    48    58    57    1
    49    59    57    1
    50    16    18    1
    51    16    17    1
    52   145   146    1
    53    57    54    1
    54   146   147    1
    55   147   149   am
    56   147   148    2
    57   149   150    1
    58   150   151    1
    59    54    53    1
    60    54    55    1
    61    69    68    1
    62    68    70    1
    63    68    65    1
    64    61    60    1
    65    61    62    1
    66    64    65    1
    67    64    62   am
    68    55    56    2
    69   151   152    2
    70   151   153   am
    71    65    66    1
    72    62    63    2
    73   153   154    1
    74    95    94    2
    75    96    94   am
    76    66    67    2
    77   162   159    1
    78    94    93    1
    79   158   159    1
    80   154   155    1
    81   154   157    1
    82   159   160    1
    83   155   156    2
    84    93    92    1
    85   160   161    2
    86   160   163   am
    87    79    76    1
    88    72    71    1
    89    72    73    1
    90   109   111   ar
    91   109   107   ar
    92    75    73   am
    93    75    76    1
    94    92    89    1
    95   106   107    1
    96   106   103    1
    97   111   112   ar
    98   101    98    1
    99    73    74    2
   100    76    77    1
   101   107   108   ar
   102   163   164    1
   103   112   113    1
   104   112   110   ar
   105   108   110   ar
   106   102   103    1
   107   102    99   am
   108   103   104    1
   109    97    98    1
   110    98    99    1
   111    89    88    1
   112    89    90    1
   113    99   100    2
   114    77    78    2
   115   164   165    1
   116   164   167    1
   117    88    82   am
   118    91    90    2
   119   104   105    2
   120   165   166    2
   121   167   168    1
   122   177   176    1
   123    86    84    1
   124    84    85    1
   125    84    81    1
   126    87    85    1
   127    82    83    2
   128    82    81    1
   129   143   141    1
   130    80    81    1
   131   168   169    2
   132   168   170   am
   133   144   142    1
   134   142   141    1
   135   176   175    1
   136   176   178    1
   137   127   126   ar
   138   128   126   ar
   139   141   138    1
   140   175   172    1
   141   119   118    1
   142   126   125    1
   143   173   174    2
   144   173   172    1
   145   118   115    1
   146   140   139    2
   147   124   125    1
   148   124   121    1
   149   114   115    1
   150   138   139    1
   151   138   137    1
   152   172   171    1
   153   136   134    1
   154   120   121    1
   155   120   116   am
   156   115   116    1
   157   121   122    1
   158   116   117    2
   159   135   134    1
   160   134   133    1
   161   132   131    2
   162   122   123    2
   163   130   133    1
   164   130   131    1
   165   130   129    1
