@<TRIPOS>MOLECULE
tmp/1gllA00.pdb
 210 197 0 0 0
SMALL
GASTEIGER

@<TRIPOS>ATOM
      1  N         50.2150   64.9170   13.4800 N.3     9  ASP9       -0.1239
      2  CA        49.3510   63.8650   13.1010 C.3     9  ASP9        0.1674
      3  C         48.5830   63.2540   14.2510 C.2     9  ASP9        0.2266
      4  O         49.0390   62.3260   14.9670 O.2     9  ASP9       -0.2867
      5  CB        50.1820   62.8500   12.3210 C.3     9  ASP9        0.1410
      6  CG        49.5080   61.5460   12.0940 C.2     9  ASP9        0.3668
      7  OD1       48.1960   61.6170   12.0460 O.co2   9  ASP9       -0.2456
      8  OD2       50.1400   60.5320   11.8950 O.co2   9  ASP9       -0.2456
      9  N         45.6350   60.9070   15.3690 N.3    11  GLY11      -0.1210
     10  CA        45.1230   59.6370   14.9190 C.3    11  GLY11       0.1956
     11  C         44.0740   58.9920   15.8030 C.2    11  GLY11       0.2613
     12  O         43.7090   59.3760   16.9200 O.2    11  GLY11      -0.2717
     13  N         43.5390   57.9740   15.2370 N.am   12  THR12      -0.1938
     14  CA        42.5330   57.2670   15.9050 C.3    12  THR12       0.2028
     15  C         42.9370   56.8300   17.3200 C.2    12  THR12       0.2643
     16  O         42.0720   56.7110   18.1950 O.2    12  THR12      -0.2714
     17  CB        42.1980   56.1230   14.9760 C.3    12  THR12       0.1808
     18  OG1       42.4530   56.4910   13.6050 O.3    12  THR12      -0.2208
     19  CG2       40.7720   55.7570   15.3000 C.3    12  THR12       0.0379
     20  N         44.2500   56.5630   17.5310 N.am   13  THR13      -0.1936
     21  CA        44.7660   56.0080   18.7780 C.3    13  THR13       0.2028
     22  C         45.9050   56.7200   19.4310 C.2    13  THR13       0.2642
     23  O         46.2420   56.4580   20.5940 O.2    13  THR13      -0.2714
     24  CB        45.2390   54.5790   18.6410 C.3    13  THR13       0.1808
     25  OG1       46.3640   54.6950   17.8130 O.3    13  THR13      -0.2208
     26  CG2       44.1870   53.6780   17.9920 C.3    13  THR13       0.0379
     27  N         46.5520   57.5500   18.6420 N.am   14  SER14      -0.1949
     28  CA        47.6880   58.2590   19.1550 C.3    14  SER14       0.1924
     29  C         47.9820   59.5500   18.4390 C.2    14  SER14       0.2314
     30  O         47.8890   59.6670   17.2030 O.2    14  SER14      -0.2863
     31  CB        48.9130   57.3840   19.1140 C.3    14  SER14       0.2116
     32  OG        49.0590   56.9210   17.7670 O.3    14  SER14      -0.2180
     33  N         50.6350   62.0410   17.0390 N.3    16  ARG16      -0.1245
     34  CA        51.9970   62.0520   16.5230 C.3    16  ARG16       0.1563
     35  C         52.4080   63.4040   15.9840 C.2    16  ARG16       0.2260
     36  O         51.5940   64.1190   15.3620 O.2    16  ARG16      -0.2867
     37  CB        52.3960   61.0630   15.4250 C.3    16  ARG16       0.0307
     38  CG        51.9780   59.6450   15.7150 C.3    16  ARG16       0.0489
     39  CD        52.9200   58.6070   15.1260 C.3    16  ARG16       0.2205
     40  NE        52.6250   58.3210   13.7300 N.pl3  16  ARG16      -0.0865
     41  CZ        53.4970   58.5470   12.7170 C.cat  16  ARG16       0.5346
     42  NH1       54.7370   59.0240   12.9280 N.pl3  16  ARG16       0.1354
     43  NH2       53.1330   58.2590   11.4470 N.pl3  16  ARG16       0.1354
     44  N         55.4790   60.8260   20.2020 N.3    31  GLN31      -0.1245
     45  CA        54.3270   59.9460   19.9820 C.3    31  GLN31       0.1566
     46  C         53.5070   59.4720   21.1370 C.2    31  GLN31       0.2260
     47  O         53.7460   58.4050   21.6470 O.2    31  GLN31      -0.2867
     48  CB        54.7660   58.7070   19.2400 C.3    31  GLN31       0.0367
     49  CG        53.7950   58.3430   18.1580 C.3    31  GLN31       0.0905
     50  CD        53.3500   56.9280   18.3440 C.2    31  GLN31       0.2608
     51  OE1       53.1520   56.4870   19.4950 O.2    31  GLN31      -0.2717
     52  NE2       53.2400   56.2170   17.2170 N.am   31  GLN31      -0.0878
     53  N         43.9830   62.2830    7.4350 N.3   240  ASP240     -0.1225
     54  CA        45.0150   61.3260    7.4070 C.3   240  ASP240      0.1805
     55  C         45.0260   60.5600    6.0860 C.2   240  ASP240      0.2597
     56  O         46.0350   60.6060    5.3610 O.2   240  ASP240     -0.2718
     57  CB        44.9860   60.3630    8.6250 C.3   240  ASP240      0.1424
     58  CG        43.7180   59.6780    8.9570 C.2   240  ASP240      0.3668
     59  OD1       42.7080   59.7810    8.2590 O.co2 240  ASP240     -0.2456
     60  OD2       43.8500   58.9460   10.0730 O.co2 240  ASP240     -0.2456
     61  N         43.9670   59.8730    5.7010 N.am  241  GLN241     -0.1979
     62  CA        44.1580   59.1400    4.4570 C.3   241  GLN241      0.1601
     63  C         44.5980   59.8670    3.1660 C.2   241  GLN241      0.2287
     64  O         45.4060   59.3900    2.3740 O.2   241  GLN241     -0.2864
     65  CB        42.9420   58.3840    4.0570 C.3   241  GLN241      0.0394
     66  CG        43.2490   56.9110    4.0540 C.3   241  GLN241      0.0908
     67  CD        43.5320   56.5330    5.4510 C.2   241  GLN241      0.2608
     68  OE1       44.4400   55.7490    5.6780 O.2   241  GLN241     -0.2717
     69  NE2       42.8180   57.1860    6.3770 N.am  241  GLN241     -0.0878
     70  N         46.3990   52.0800    2.0230 N.3   259  THR259     -0.1203
     71  CA        46.9340   52.1820    3.3230 C.3   259  THR259      0.1994
     72  C         46.5330   51.0110    4.2570 C.2   259  THR259      0.2618
     73  O         45.4950   50.3470    4.1110 O.2   259  THR259     -0.2717
     74  CB        46.5210   53.5010    3.8920 C.3   259  THR259      0.1784
     75  OG1       47.4720   54.4330    3.4660 O.3   259  THR259     -0.2211
     76  CG2       46.4160   53.3640    5.4060 C.3   259  THR259      0.0376
     77  N         47.3950   50.7610    5.2250 N.am  260  TYR260     -0.1961
     78  CA        47.2160   49.7250    6.1740 C.3   260  TYR260      0.1771
     79  C         47.4590   50.0920    7.5790 C.2   260  TYR260      0.2620
     80  O         48.5080   49.7290    8.0560 O.2   260  TYR260     -0.2715
     81  CB        48.0780   48.5210    5.9510 C.3   260  TYR260      0.0574
     82  CG        47.7390   47.8090    4.6970 C.ar  260  TYR260     -0.0198
     83  CD1       48.1980   48.2000    3.4360 C.ar  260  TYR260     -0.0009
     84  CD2       46.9910   46.6390    4.8230 C.ar  260  TYR260     -0.0009
     85  CE1       47.8720   47.4270    2.3200 C.ar  260  TYR260      0.0417
     86  CE2       46.6830   45.8390    3.7230 C.ar  260  TYR260      0.0417
     87  CZ        47.1120   46.2560    2.4690 C.ar  260  TYR260      0.1957
     88  OH        46.7750   45.4470    1.4230 O.3   260  TYR260     -0.2866
     89  N         46.4930   50.7090    8.2680 N.am  261  GLY261     -0.1940
     90  CA        46.6530   51.0960    9.6910 C.3   261  GLY261      0.2014
     91  C         45.5290   50.6470   10.6330 C.2   261  GLY261      0.2639
     92  O         45.2170   49.4410   10.7540 O.2   261  GLY261     -0.2714
     93  N         44.9240   51.6220   11.3280 N.am  262  THR262     -0.1950
     94  CA        43.9210   51.1910   12.2780 C.3   262  THR262      0.1897
     95  C         42.8010   50.4670   11.5330 C.2   262  THR262      0.2313
     96  O         42.2920   49.3910   11.9670 O.2   262  THR262     -0.2863
     97  CB        43.4470   52.3610   13.1370 C.3   262  THR262      0.1794
     98  OG1       44.4610   52.6650   14.0890 O.3   262  THR262     -0.2208
     99  CG2       42.1660   51.9540   13.8500 C.3   262  THR262      0.0378
    100  N         44.6090   47.0520   11.5470 N.3   305  GLY305     -0.1210
    101  CA        45.6080   46.7320   12.5090 C.3   305  GLY305      0.1956
    102  C         44.8930   46.4730   13.8080 C.2   305  GLY305      0.2611
    103  O         45.1830   45.5640   14.6020 O.2   305  GLY305     -0.2717
    104  N         43.9170   47.3190   13.9930 N.am  306  ALA306     -0.1979
    105  CA        43.0440   47.2860   15.1230 C.3   306  ALA306      0.1597
    106  C         42.7520   45.8680   15.5550 C.2   306  ALA306      0.2287
    107  O         42.7320   45.5200   16.7510 O.2   306  ALA306     -0.2864
    108  CB        41.8300   48.0720   14.6820 C.3   306  ALA306      0.0319
    109  N         44.5450   43.4150   15.2400 N.3   308  ILE308     -0.1231
    110  CA        45.7670   42.9440   15.8290 C.3   308  ILE308      0.1692
    111  C         45.9790   43.5530   17.2180 C.2   308  ILE308      0.2591
    112  O         46.2410   42.7600   18.1590 O.2   308  ILE308     -0.2718
    113  CB        46.8970   43.1890   14.8140 C.3   308  ILE308      0.0266
    114  CG1       46.9590   42.0150   13.8360 C.3   308  ILE308      0.0019
    115  CG2       48.2970   43.3220   15.4250 C.3   308  ILE308      0.0020
    116  CD1       45.7010   41.8330   12.9800 C.3   308  ILE308      0.0001
    117  N         45.7810   44.8780   17.4210 N.am  309  GLN309     -0.1979
    118  CA        45.8820   45.2950   18.8240 C.3   309  GLN309      0.1601
    119  C         45.0600   44.4510   19.7610 C.2   309  GLN309      0.2287
    120  O         45.5990   43.9260   20.7360 O.2   309  GLN309     -0.2864
    121  CB        45.5190   46.7070   19.1680 C.3   309  GLN309      0.0394
    122  CG        45.4540   47.5150   17.8890 C.3   309  GLN309      0.0908
    123  CD        46.2150   48.7700   18.1050 C.2   309  GLN309      0.2608
    124  OE1       47.0190   48.8140   19.0460 O.2   309  GLN309     -0.2717
    125  NE2       45.9330   49.7890   17.2830 N.am  309  GLN309     -0.0878
    126  N         46.2510   41.3790   20.6080 N.3   312  ARG312     -0.1245
    127  CA        47.2420   41.7230   21.5730 C.3   312  ARG312      0.1563
    128  C         46.6800   42.1940   22.8970 C.2   312  ARG312      0.2260
    129  O         46.8380   41.5450   23.9190 O.2   312  ARG312     -0.2867
    130  CB        48.1760   42.7670   21.0660 C.3   312  ARG312      0.0307
    131  CG        48.7370   43.6300   22.2150 C.3   312  ARG312      0.0489
    132  CD        49.9650   44.5180   21.8980 C.3   312  ARG312      0.2205
    133  NE        49.8630   45.9070   22.3850 N.pl3 312  ARG312     -0.0865
    134  CZ        49.4400   46.9340   21.6190 C.cat 312  ARG312      0.5346
    135  NH1       49.0480   46.7540   20.3490 N.pl3 312  ARG312      0.1354
    136  NH2       49.3910   48.1770   22.1340 N.pl3 312  ARG312      0.1354
    137  N         52.5620   43.3600   18.1210 N.3   321  ALA321     -0.1231
    138  CA        51.9550   43.2230   16.8020 C.3   321  ALA321      0.1694
    139  C         52.8750   42.4200   15.9400 C.2   321  ALA321      0.2592
    140  O         52.5120   41.5710   15.1610 O.2   321  ALA321     -0.2718
    141  CB        51.5820   44.5230   16.0840 C.3   321  ALA321      0.0304
    142  N         54.1000   42.7170   16.1120 N.am  322  TYR322     -0.1976
    143  CA        55.1530   42.0500   15.4400 C.3   322  TYR322      0.1639
    144  C         54.9530   40.5540   15.4190 C.2   322  TYR322      0.2290
    145  O         54.9320   39.9060   14.3700 O.2   322  TYR322     -0.2864
    146  CB        56.4220   42.5020   16.1770 C.3   322  TYR322      0.0560
    147  CG        57.5340   42.1630   15.3230 C.ar  322  TYR322     -0.0198
    148  CD1       57.7050   42.8850   14.1420 C.ar  322  TYR322     -0.0009
    149  CD2       58.2660   41.0020   15.5470 C.ar  322  TYR322     -0.0009
    150  CE1       58.6940   42.5420   13.2170 C.ar  322  TYR322      0.0417
    151  CE2       59.2560   40.6520   14.6250 C.ar  322  TYR322      0.0417
    152  CZ        59.4740   41.4070   13.4600 C.ar  322  TYR322      0.1957
    153  OH        60.4580   41.0390   12.5310 O.3   322  TYR322     -0.2866
    154  N         52.7540   38.6670   15.4930 N.3   324  SER324     -0.1202
    155  CA        51.7650   38.0160   14.6730 C.3   324  SER324      0.2020
    156  C         52.3810   37.1150   13.6280 C.2   324  SER324      0.2618
    157  O         52.0680   35.8930   13.6260 O.2   324  SER324     -0.2717
    158  CB        50.7550   38.9440   13.9780 C.3   324  SER324      0.2103
    159  OG        51.2830   40.2100   13.5790 O.3   324  SER324     -0.2182
    160  N         53.2180   37.7540   12.7450 N.am  325  GLU325     -0.1979
    161  CA        53.8980   37.0850   11.6300 C.3   325  GLU325      0.1602
    162  C         54.4640   35.7600   12.0650 C.2   325  GLU325      0.2287
    163  O         54.1860   34.7520   11.4450 O.2   325  GLU325     -0.2864
    164  CB        55.0010   37.9350   10.9890 C.3   325  GLU325      0.0415
    165  CG        55.4650   37.3510    9.6450 C.3   325  GLU325      0.1163
    166  CD        56.1080   38.3670    8.7200 C.2   325  GLU325      0.3649
    167  OE1       56.1710   39.5630    9.2380 O.co2 325  GLU325     -0.2457
    168  OE2       56.5690   38.0870    7.6280 O.co2 325  GLU325     -0.2457
    169  N         44.8050   38.0640   10.3610 N.3   376  LEU376     -0.1245
    170  CA        45.5720   38.8010    9.3860 C.3   376  LEU376      0.1561
    171  C         45.0330   38.7130    8.0320 C.2   376  LEU376      0.2260
    172  O         45.0280   39.7070    7.3020 O.2   376  LEU376     -0.2867
    173  CB        47.0090   38.3710    9.3330 C.3   376  LEU376      0.0270
    174  CG        47.6630   38.7480   10.6260 C.3   376  LEU376      0.0019
    175  CD1       49.0560   38.1450   10.6400 C.3   376  LEU376      0.0001
    176  CD2       47.7080   40.2750   10.6880 C.3   376  LEU376      0.0001
    177  N         51.3740   52.0260    5.2710 N.3   405  GLY405     -0.1210
    178  CA        50.9320   51.9170    6.6170 C.3   405  GLY405      0.1956
    179  C         51.6940   50.8910    7.4940 C.2   405  GLY405      0.2612
    180  O         52.4020   49.9860    7.0280 O.2   405  GLY405     -0.2717
    181  N         51.4760   51.0850    8.8180 N.am  406  GLY406     -0.1942
    182  CA        51.9670   50.2760    9.8880 C.3   406  GLY406      0.2014
    183  C         52.1820   48.8400    9.4630 C.2   406  GLY406      0.2638
    184  O         53.2990   48.3310    9.3660 O.2   406  GLY406     -0.2714
    185  N         51.1180   48.1530    9.2110 N.am  407  ALA407     -0.1977
    186  CA        51.2700   46.7700    8.8250 C.3   407  ALA407      0.1597
    187  C         52.0320   46.4090    7.5590 C.2   407  ALA407      0.2287
    188  O         52.2020   45.2170    7.2970 O.2   407  ALA407     -0.2864
    189  CB        49.9770   46.0140    8.6650 C.3   407  ALA407      0.0319
    190  N         54.8220   46.3460    7.1300 N.3   409  ALA409     -0.1231
    191  CA        55.9560   45.6400    7.6430 C.3   409  ALA409      0.1694
    192  C         55.8370   44.1140    7.6170 C.2   409  ALA409      0.2592
    193  O         56.8250   43.4120    7.5390 O.2   409  ALA409     -0.2718
    194  CB        56.1640   46.1450    9.0120 C.3   409  ALA409      0.0304
    195  N         54.6040   43.6240    7.7400 N.am  410  ASN410     -0.1974
    196  CA        54.2350   42.2140    7.7160 C.3   410  ASN410      0.1688
    197  C         54.3370   41.6330    6.3530 C.2   410  ASN410      0.2292
    198  O         53.6050   41.9530    5.4240 O.2   410  ASN410     -0.2864
    199  CB        52.8310   41.9160    8.2590 C.3   410  ASN410      0.1181
    200  CG        52.6970   40.4500    8.6720 C.2   410  ASN410      0.2629
    201  OD1       52.3820   40.1530    9.8740 O.2   410  ASN410     -0.2716
    202  ND2       52.9890   39.5390    7.7060 N.am  410  ASN410     -0.0877
    203  N         51.6440   38.8560    5.4510 N.3   413  LEU413     -0.1245
    204  CA        50.5150   39.5690    5.1140 C.3   413  LEU413      0.1561
    205  C         50.5850   39.9000    3.6860 C.2   413  LEU413      0.2260
    206  O         49.9430   39.3150    2.8340 O.2   413  LEU413     -0.2867
    207  CB        50.4380   40.7680    6.0110 C.3   413  LEU413      0.0270
    208  CG        48.9910   41.0620    6.4620 C.3   413  LEU413      0.0019
    209  CD1       48.7220   42.5520    6.6190 C.3   413  LEU413      0.0001
    210  CD2       47.9580   40.5420    5.4730 C.3   413  LEU413      0.0001
@<TRIPOS>BOND
     1    88    87    1
     2    70    71    1
     3    85    87   ar
     4    85    83   ar
     5    64    63    2
     6    87    86   ar
     7   206   205    2
     8    63    62    1
     9    71    74    1
    10    71    72    1
    11    83    82   ar
    12    75    74    1
    13   205   204    1
    14    86    84   ar
    15    74    76    1
    16    66    65    1
    17    66    67    1
    18    65    62    1
    19    73    72    2
    20    72    77   am
    21    62    61    1
    22    82    84   ar
    23    82    81    1
    24   204   203    1
    25   204   207    1
    26    77    78    1
    27   177   178    1
    28    56    55    2
    29   198   197    2
    30    67    68    2
    31    67    69   am
    32   210   208    1
    33    61    55   am
    34    81    78    1
    35   207   208    1
    36    55    54    1
    37    78    79    1
    38   197   196    1
    39   208   209    1
    40   178   179    1
    41   180   179    2
    42   190   191    1
    43   188   187    2
    44   172   171    2
    45    54    53    1
    46    54    57    1
    47   179   181   am
    48   193   192    2
    49   187   186    1
    50    79    80    2
    51    79    89   am
    52   192   191    1
    53   192   195   am
    54   168   166   ar
    55   191   194    1
    56   202   200   am
    57   196   195    1
    58   196   199    1
    59   171   170    1
    60    59    58   ar
    61   199   200    1
    62    89    90    1
    63    57    58    1
    64   189   186    1
    65   200   201    2
    66   166   167   ar
    67   166   165    1
    68   181   182    1
    69   186   185    1
    70    58    60   ar
    71   185   183   am
    72   173   170    1
    73   173   174    1
    74   184   183    2
    75   170   169    1
    76   183   182    1
    77   165   164    1
    78    90    91    1
    79   174   175    1
    80   174   176    1
    81    91    92    2
    82    91    93   am
    83   164   161    1
    84    93    94    1
    85   163   162    2
    86    43    41    1
    87    95    96    2
    88    95    94    1
    89   100   101    1
    90   161   162    1
    91   161   160    1
    92     8     6   ar
    93     7     6   ar
    94     6     5    1
    95    94    97    1
    96     5     2    1
    97   101   102    1
    98   153   152    1
    99    41    42    1
   100    41    40    2
   101   160   156   am
   102   116   114    1
   103     2     1    1
   104     2     3    1
   105    97    99    1
   106    97    98    1
   107   150   152   ar
   108   150   148   ar
   109   152   151   ar
   110   159   158    1
   111    18    17    1
   112   157   156    2
   113   156   155    1
   114    40    39    1
   115   102   104   am
   116   102   103    2
   117   114   113    1
   118   158   155    1
   119   104   105    1
   120   148   147   ar
   121     3     4    2
   122   145   144    2
   123   151   149   ar
   124   155   154    1
   125   108   105    1
   126   113   115    1
   127   113   110    1
   128    10     9    1
   129    10    11    1
   130    17    19    1
   131    17    14    1
   132   105   106    1
   133    39    38    1
   134   140   139    2
   135    13    11   am
   136    13    14    1
   137   109   110    1
   138   147   149   ar
   139   147   146    1
   140    36    35    2
   141   144   143    1
   142    37    38    1
   143    37    34    1
   144   143   142    1
   145   143   146    1
   146   106   107    2
   147    11    12    2
   148   110   111    1
   149    14    15    1
   150   139   142   am
   151   139   138    1
   152    35    34    1
   153   141   138    1
   154    34    33    1
   155   138   137    1
   156    30    29    2
   157    52    50   am
   158   111   117   am
   159   111   112    2
   160   125   123   am
   161    15    20   am
   162    15    16    2
   163   117   118    1
   164    20    21    1
   165    32    31    1
   166    25    24    1
   167   122   123    1
   168   122   121    1
   169    26    24    1
   170   123   124    2
   171    49    50    1
   172    49    48    1
   173    50    51    2
   174    29    28    1
   175    24    21    1
   176    27    28    1
   177    27    22   am
   178    21    22    1
   179   118   121    1
   180   118   119    1
   181    31    28    1
   182    48    45    1
   183    22    23    2
   184   119   120    2
   185    45    44    1
   186    45    46    1
   187   135   134    1
   188   126   127    1
   189   130   127    1
   190   130   131    1
   191    46    47    2
   192   127   128    1
   193   134   136    1
   194   134   133    2
   195   132   131    1
   196   132   133    1
   197   128   129    2
