@<TRIPOS>MOLECULE
tmp/1glpA00.pdb
 147 143 0 0 0
SMALL
GASTEIGER

@<TRIPOS>ATOM
      1  N         57.6460   -2.7410    7.2370 N.3     7  TYR7       -0.1227
      2  CA        56.6270   -1.7320    7.5580 C.3     7  TYR7        0.1736
      3  C         55.3090   -2.3940    7.9590 C.2     7  TYR7        0.2595
      4  O         55.1010   -3.6020    7.8060 O.2     7  TYR7       -0.2718
      5  CB        56.3850   -0.8330    6.3100 C.3     7  TYR7        0.0548
      6  CG        55.6380    0.4880    6.4750 C.ar    7  TYR7       -0.0200
      7  CD1       56.0300    1.3950    7.4800 C.ar    7  TYR7       -0.0009
      8  CD2       54.6130    0.8050    5.5640 C.ar    7  TYR7       -0.0009
      9  CE1       55.4000    2.6400    7.5650 C.ar    7  TYR7        0.0417
     10  CE2       53.9970    2.0490    5.6620 C.ar    7  TYR7        0.0417
     11  CZ        54.3870    2.9410    6.6480 C.ar    7  TYR7        0.1957
     12  OH        53.7490    4.1520    6.7320 O.3     7  TYR7       -0.2866
     13  N         54.4680   -1.5400    8.5370 N.am    8  PHE8       -0.1976
     14  CA        53.0920   -1.8700    8.8760 C.3     8  PHE8        0.1639
     15  C         52.3160   -2.1640    7.6060 C.2     8  PHE8        0.2290
     16  O         52.7280   -1.6590    6.5480 O.2     8  PHE8       -0.2864
     17  CB        52.4490   -0.6990    9.6060 C.3     8  PHE8        0.0560
     18  CG        53.1590   -0.5000   10.9260 C.ar    8  PHE8       -0.0200
     19  CD1       53.1350   -1.5080   11.9060 C.ar    8  PHE8       -0.0042
     20  CD2       53.8380    0.6920   11.1310 C.ar    8  PHE8       -0.0042
     21  CE1       53.8210   -1.3040   13.0950 C.ar    8  PHE8       -0.0003
     22  CE2       54.5200    0.8860   12.3300 C.ar    8  PHE8       -0.0003
     23  CZ        54.5160   -0.1060   13.3090 C.ar    8  PHE8       -0.0000
     24  N         50.2190   -0.9820    5.5850 N.3    10  VAL10      -0.1245
     25  CA        49.5610    0.2230    5.1010 C.3    10  VAL10       0.1561
     26  C         50.4220    0.7750    3.9690 C.2    10  VAL10       0.2260
     27  O         51.5330    0.3080    3.7390 O.2    10  VAL10      -0.2867
     28  CB        49.4180    1.3720    6.1600 C.3    10  VAL10       0.0252
     29  CG1       48.4870    0.8880    7.2420 C.3    10  VAL10       0.0019
     30  CG2       50.7590    1.7690    6.7930 C.3    10  VAL10       0.0019
     31  N         50.8700    4.3180    3.6020 N.3    12  GLY12      -0.1210
     32  CA        51.5290    5.3270    4.3870 C.3    12  GLY12       0.1956
     33  C         52.7220    5.9750    3.6860 C.2    12  GLY12       0.2611
     34  O         52.6810    6.4070    2.5300 O.2    12  GLY12      -0.2717
     35  N         53.8220    5.9530    4.4590 N.am   13  ARG13      -0.1979
     36  CA        55.0940    6.5470    4.0630 C.3    13  ARG13       0.1597
     37  C         55.9170    5.6260    3.1700 C.2    13  ARG13       0.2287
     38  O         57.0500    5.9710    2.8300 O.2    13  ARG13      -0.2864
     39  CB        55.8750    6.8810    5.3050 C.3    13  ARG13       0.0334
     40  CG        55.2260    8.0200    6.0480 C.3    13  ARG13       0.0492
     41  CD        56.0830    8.4600    7.2410 C.3    13  ARG13       0.2205
     42  NE        55.6040    9.7490    7.7250 N.pl3  13  ARG13      -0.0865
     43  CZ        55.8970   10.9080    7.1230 C.cat  13  ARG13       0.5346
     44  NH1       56.6690   10.9880    6.0350 N.pl3  13  ARG13       0.1354
     45  NH2       55.3830   12.0290    7.5870 N.pl3  13  ARG13       0.1354
     46  N         54.3790   -5.6610   16.4700 N.3    38  TRP38      -0.1241
     47  CA        54.9920   -4.4270   16.9290 C.3    38  TRP38       0.1605
     48  C         54.7940   -4.2460   18.4150 C.2    38  TRP38       0.2264
     49  O         55.7400   -3.9300   19.1520 O.2    38  TRP38      -0.2867
     50  CB        54.3820   -3.2460   16.1870 C.3    38  TRP38       0.0550
     51  CG        55.0730   -1.9300   16.5070 C.ar   38  TRP38       0.0003
     52  CD1       54.4570   -0.9410   17.2240 C.ar   38  TRP38       0.0946
     53  CD2       56.3270   -1.5630   16.0500 C.ar   38  TRP38       0.0152
     54  NE1       55.3130    0.0670   17.2070 N.ar   38  TRP38      -0.2442
     55  CE2       56.4330   -0.2520   16.5360 C.ar   38  TRP38       0.0810
     56  CE3       57.3790   -2.1470   15.3130 C.ar   38  TRP38       0.0012
     57  CZ2       57.5760    0.5180   16.2840 C.ar   38  TRP38       0.0191
     58  CZ3       58.5290   -1.3730   15.0730 C.ar   38  TRP38       0.0001
     59  CH2       58.6250   -0.0510   15.5500 C.ar   38  TRP38       0.0015
     60  N         60.8180   -2.7490   17.9410 N.3    44  LYS44      -0.1245
     61  CA        60.9280   -1.3070   18.0830 C.3    44  LYS44       0.1561
     62  C         62.2270   -0.8630   18.7020 C.2    44  LYS44       0.2260
     63  O         62.8110    0.0440   18.1220 O.2    44  LYS44      -0.2867
     64  CB        59.7590   -0.8030   18.9180 C.3    44  LYS44       0.0271
     65  CG        59.7200    0.6680   19.2520 C.3    44  LYS44       0.0035
     66  CD        58.4840    0.8810   20.0880 C.3    44  LYS44       0.0206
     67  CE        58.3810    2.3160   20.5450 C.3    44  LYS44       0.1093
     68  NZ        58.0790    3.1800   19.4220 N.3    44  LYS44      -0.1314
     69  N         63.1320    4.1880   16.8630 N.3    50  GLY50      -0.1210
     70  CA        61.9870    3.4090   17.3460 C.3    50  GLY50       0.1956
     71  C         60.8250    3.3610   16.3620 C.2    50  GLY50       0.2612
     72  O         59.7200    3.0410   16.7720 O.2    50  GLY50      -0.2717
     73  N         60.9910    3.5890   15.0600 N.am   51  GLN51      -0.1965
     74  CA        59.8760    3.6290   14.1350 C.3    51  GLN51       0.1733
     75  C         60.2500    2.9230   12.8570 C.2    51  GLN51       0.2616
     76  O         61.4270    2.6410   12.6120 O.2    51  GLN51      -0.2715
     77  CB        59.5140    5.0660   13.7990 C.3    51  GLN51       0.0408
     78  CG        59.1190    5.8530   15.0300 C.3    51  GLN51       0.0908
     79  CD        58.2910    7.0820   14.7280 C.2    51  GLN51       0.2608
     80  OE1       58.7100    8.0320   14.0800 O.2    51  GLN51      -0.2717
     81  NE2       57.0560    7.1380   15.1780 N.am   51  GLN51      -0.0878
     82  N         59.2130    2.6380   12.0720 N.am   52  LEU52      -0.1964
     83  CA        59.2770    2.0360   10.7620 C.3    52  LEU52       0.1713
     84  C         58.8870    3.0880    9.7390 C.2    52  LEU52       0.2458
     85  O         58.1440    3.9890   10.1160 O.2    52  LEU52      -0.2730
     86  CB        58.3170    0.8610   10.6860 C.3    52  LEU52       0.0310
     87  CG        58.6330   -0.3400   11.5680 C.3    52  LEU52       0.0022
     88  CD1       57.6530   -1.4430   11.2570 C.3    52  LEU52       0.0001
     89  CD2       60.0440   -0.8860   11.2760 C.3    52  LEU52       0.0001
     90  N         59.2650    3.0980    8.4570 N.am   53  PRO53      -0.2727
     91  CA        59.9670    2.0030    7.7690 C.3    53  PRO53       0.1402
     92  C         61.4270    1.7420    8.0990 C.2    53  PRO53       0.2269
     93  O         62.1670    2.6240    8.5620 O.2    53  PRO53      -0.2865
     94  CB        59.7820    2.3040    6.3130 C.3    53  PRO53       0.0296
     95  CG        59.7020    3.8260    6.2740 C.3    53  PRO53       0.0237
     96  CD        58.9050    4.1700    7.5240 C.3    53  PRO53       0.0939
     97  N         64.0340    6.2910    8.1750 N.3    64  GLN64      -0.1231
     98  CA        63.5210    7.5700    7.7010 C.3    64  GLN64       0.1698
     99  C         63.1150    7.4890    6.2340 C.2    64  GLN64       0.2593
    100  O         63.9640    7.5100    5.3160 O.2    64  GLN64      -0.2718
    101  CB        64.5570    8.7090    7.8890 C.3    64  GLN64       0.0381
    102  CG        64.7750    9.0550    9.3760 C.3    64  GLN64       0.0905
    103  CD        63.6430    9.8510   10.0230 C.2    64  GLN64       0.2608
    104  OE1       62.7170   10.3230    9.3690 O.2    64  GLN64      -0.2717
    105  NE2       63.6890   10.0590   11.3100 N.am   64  GLN64      -0.0878
    106  N         61.7840    7.4610    5.9750 N.am   65  SER65      -0.1938
    107  CA        61.2930    7.2750    4.6210 C.3    65  SER65       0.2055
    108  C         61.8580    8.2650    3.6000 C.2    65  SER65       0.2643
    109  O         62.1990    7.8400    2.4940 O.2    65  SER65      -0.2714
    110  CB        59.7760    7.3500    4.6190 C.3    65  SER65       0.2130
    111  OG        59.3560    8.6280    5.0630 O.3    65  SER65      -0.2179
    112  N         62.0420    9.5680    3.8760 N.am   66  ASN66      -0.1971
    113  CA        62.6340   10.4540    2.8810 C.3    66  ASN66       0.1688
    114  C         64.1220   10.2050    2.6960 C.2    66  ASN66       0.2292
    115  O         64.6360   10.4740    1.6230 O.2    66  ASN66      -0.2864
    116  CB        62.4780   11.8890    3.2550 C.3    66  ASN66       0.1181
    117  CG        61.0360   12.3030    3.2730 C.2    66  ASN66       0.2629
    118  OD1       60.3700   12.2960    2.2470 O.2    66  ASN66      -0.2716
    119  ND2       60.5210   12.6300    4.4470 N.am   66  ASN66      -0.0877
    120  N         56.5920   16.6530    1.9360 N.3    97  GLU97      -0.1245
    121  CA        56.6080   16.1610    3.3010 C.3    97  GLU97       0.1567
    122  C         55.8540   17.1130    4.2540 C.2    97  GLU97       0.2260
    123  O         55.1060   16.6330    5.1330 O.2    97  GLU97      -0.2867
    124  CB        58.0950   15.9630    3.6850 C.3    97  GLU97       0.0388
    125  CG        58.3240   15.5230    5.1130 C.3    97  GLU97       0.1160
    126  CD        57.6340   14.2290    5.5350 C.2    97  GLU97       0.3649
    127  OE1       57.5110   13.3200    4.7130 O.co2  97  GLU97      -0.2457
    128  OE2       57.2210   14.1560    6.6990 O.co2  97  GLU97      -0.2457
    129  N         48.5830   13.5450    7.6630 N.3   104  VAL104     -0.1245
    130  CA        48.6610   12.5280    8.7130 C.3   104  VAL104      0.1561
    131  C         48.0270   12.9970   10.0360 C.2   104  VAL104      0.2260
    132  O         47.2510   12.2420   10.6400 O.2   104  VAL104     -0.2867
    133  CB        50.1580   12.1380    8.8730 C.3   104  VAL104      0.0252
    134  CG1       50.4780   11.4110   10.1620 C.3   104  VAL104      0.0019
    135  CG2       50.4620   11.1170    7.7800 C.3   104  VAL104      0.0019
    136  N         44.7660   10.9030   11.5910 N.3   108  TYR108     -0.1241
    137  CA        44.8120   10.2180   12.8520 C.3   108  TYR108      0.1605
    138  C         44.2370   11.0400   13.9850 C.2   108  TYR108      0.2264
    139  O         43.6600   10.4080   14.8640 O.2   108  TYR108     -0.2867
    140  CB        46.2420    9.8210   13.1890 C.3   108  TYR108      0.0534
    141  CG        46.7540    8.7690   12.2130 C.ar  108  TYR108     -0.0201
    142  CD1       47.3820    9.1410   11.0170 C.ar  108  TYR108     -0.0009
    143  CD2       46.6030    7.4210   12.5080 C.ar  108  TYR108     -0.0009
    144  CE1       47.8580    8.1770   10.1250 C.ar  108  TYR108      0.0417
    145  CE2       47.0720    6.4550   11.6190 C.ar  108  TYR108      0.0417
    146  CZ        47.6950    6.8390   10.4410 C.ar  108  TYR108      0.1957
    147  OH        48.1500    5.8480    9.5890 O.3   108  TYR108     -0.2866
@<TRIPOS>BOND
     1   115   114    2
     2   120   121    1
     3   118   117    2
     4   109   108    2
     5    34    33    2
     6   114   113    1
     7    38    37    2
     8   113   116    1
     9   113   112    1
    10    37    36    1
    11   116   117    1
    12   117   119   am
    13   121   124    1
    14   121   122    1
    15   108   112   am
    16   108   107    1
    17    31    32    1
    18   124   125    1
    19    33    32    1
    20    33    35   am
    21    27    26    2
    22    26    25    1
    23    36    35    1
    24    36    39    1
    25   122   123    2
    26   110   107    1
    27   110   111    1
    28   107   106    1
    29   127   126   ar
    30    25    24    1
    31    25    28    1
    32   125   126    1
    33    39    40    1
    34   100    99    2
    35   126   128   ar
    36     8    10   ar
    37     8     6   ar
    38    10    11   ar
    39   106    99   am
    40    44    43    1
    41    40    41    1
    42    28    30    1
    43    28    29    1
    44    99    98    1
    45    95    94    1
    46    95    96    1
    47     5     6    1
    48     5     2    1
    49    94    91    1
    50     6     7   ar
    51    16    15    2
    52    11    12    1
    53    11     9   ar
    54    43    45    1
    55    43    42    2
    56     1     2    1
    57    41    42    1
    58     7     9   ar
    59    96    90    1
    60     2     3    1
    61    15    14    1
    62   129   130    1
    63    98   101    1
    64    98    97    1
    65    91    92    1
    66    91    90    1
    67   135   133    1
    68     4     3    2
    69   101   102    1
    70     3    13   am
    71    92    93    2
    72    90    84   am
    73    13    14    1
    74   130   133    1
    75   130   131    1
    76   133   134    1
    77    14    17    1
    78   104   103    2
    79   102   103    1
    80   147   146    1
    81    17    18    1
    82    84    85    2
    83    84    83    1
    84   103   105   am
    85   131   132    2
    86   144   146   ar
    87   144   142   ar
    88   146   145   ar
    89    86    83    1
    90    86    87    1
    91    83    82    1
    92    18    20   ar
    93    18    19   ar
    94   142   141   ar
    95    20    22   ar
    96    88    87    1
    97    89    87    1
    98   136   137    1
    99   145   143   ar
   100    19    21   ar
   101    82    75   am
   102   141   143   ar
   103   141   140    1
   104    22    23   ar
   105    76    75    2
   106   137   140    1
   107   137   138    1
   108    75    74    1
   109    21    23   ar
   110    77    74    1
   111    77    78    1
   112   138   139    2
   113    80    79    2
   114    74    73    1
   115    79    78    1
   116    79    81   am
   117    73    71   am
   118    58    56   ar
   119    58    59   ar
   120    56    53   ar
   121    59    57   ar
   122    53    51   ar
   123    53    55   ar
   124    50    51    1
   125    50    47    1
   126    57    55   ar
   127    71    72    2
   128    71    70    1
   129    46    47    1
   130    51    52   ar
   131    55    54   ar
   132    69    70    1
   133    47    48    1
   134    54    52   ar
   135    60    61    1
   136    61    62    1
   137    61    64    1
   138    63    62    2
   139    48    49    2
   140    64    65    1
   141    65    66    1
   142    68    67    1
   143    66    67    1
