@<TRIPOS>MOLECULE
tmp/1glqB00.pdb
 162 158 0 0 0
SMALL
GASTEIGER

@<TRIPOS>ATOM
      1  N         65.3150   36.1520    6.5240 N.3     7  TYR7       -0.1227
      2  CA        64.6820   35.5240    7.6560 C.3     7  TYR7        0.1736
      3  C         64.2670   36.5600    8.6940 C.2     7  TYR7        0.2595
      4  O         64.6770   37.7180    8.6760 O.2     7  TYR7       -0.2718
      5  CB        65.6710   34.4820    8.2750 C.3     7  TYR7        0.0548
      6  CG        65.0570   33.4550    9.2380 C.ar    7  TYR7       -0.0200
      7  CD1       63.9120   32.7230    8.8580 C.ar    7  TYR7       -0.0009
      8  CD2       65.6440   33.2260   10.4970 C.ar    7  TYR7       -0.0009
      9  CE1       63.3580   31.7680    9.7230 C.ar    7  TYR7        0.0417
     10  CE2       65.0900   32.2720   11.3560 C.ar    7  TYR7        0.0417
     11  CZ        63.9550   31.5520   10.9600 C.ar    7  TYR7        0.1957
     12  OH        63.4310   30.5910   11.7990 O.3     7  TYR7       -0.2866
     13  N         63.3920   36.1290    9.5950 N.am    8  PHE8       -0.1963
     14  CA        62.9840   36.8420   10.7790 C.3     8  PHE8        0.1756
     15  C         64.2440   37.0340   11.6300 C.2     8  PHE8        0.2461
     16  O         65.2160   36.2620   11.4930 O.2     8  PHE8       -0.2730
     17  CB        61.9680   36.0110   11.5900 C.3     8  PHE8        0.0574
     18  CG        60.6640   35.8390   10.8390 C.ar    8  PHE8       -0.0200
     19  CD1       59.8330   36.9570   10.6100 C.ar    8  PHE8       -0.0042
     20  CD2       60.2980   34.5760   10.3700 C.ar    8  PHE8       -0.0042
     21  CE1       58.6390   36.7960    9.9040 C.ar    8  PHE8       -0.0003
     22  CE2       59.0950   34.4210    9.6650 C.ar    8  PHE8       -0.0003
     23  CZ        58.2760   35.5300    9.4390 C.ar    8  PHE8       -0.0000
     24  N         64.2870   38.0290   12.5280 N.am    9  PRO9       -0.2716
     25  CA        65.4550   38.2820   13.3680 C.3     9  PRO9        0.1536
     26  C         65.6350   37.2770   14.5170 C.2     9  PRO9        0.2598
     27  O         65.7030   37.6980   15.6750 O.2     9  PRO9       -0.2715
     28  CB        65.2020   39.7230   13.7830 C.3     9  PRO9        0.0310
     29  CG        63.7110   39.8010   13.9400 C.3     9  PRO9        0.0237
     30  CD        63.2240   39.0120   12.7600 C.3     9  PRO9        0.0939
     31  N         65.7000   35.9620   14.2880 N.am   10  VAL10      -0.1978
     32  CA        65.8300   34.9770   15.3470 C.3    10  VAL10       0.1596
     33  C         66.8250   33.9490   14.7960 C.2    10  VAL10       0.2287
     34  O         67.1660   33.9550   13.5990 O.2    10  VAL10      -0.2864
     35  CB        64.5030   34.2250   15.6870 C.3    10  VAL10       0.0276
     36  CG1       63.4550   35.2340   16.1180 C.3    10  VAL10       0.0022
     37  CG2       63.9880   33.4420   14.5040 C.3    10  VAL10       0.0022
     38  N         66.3830   30.3810   15.2270 N.3    12  GLY12      -0.1210
     39  CA        65.4260   29.4430   14.6480 C.3    12  GLY12       0.1956
     40  C         65.9850   28.4470   13.6350 C.2    12  GLY12       0.2611
     41  O         66.9410   27.7230   13.9370 O.2    12  GLY12      -0.2717
     42  N         65.4380   28.4290   12.4200 N.am   13  ARG13      -0.1979
     43  CA        65.8700   27.5070   11.3840 C.3    13  ARG13       0.1597
     44  C         67.0710   27.9720   10.5640 C.2    13  ARG13       0.2287
     45  O         67.3810   27.3660    9.5330 O.2    13  ARG13      -0.2864
     46  CB        64.6830   27.2490   10.4640 C.3    13  ARG13       0.0334
     47  CG        63.7730   26.1980   11.0860 C.3    13  ARG13       0.0492
     48  CD        62.5080   25.8690   10.2550 C.3    13  ARG13       0.2205
     49  NE        61.7050   24.8760   10.9540 N.pl3  13  ARG13      -0.0865
     50  CZ        61.9730   23.5760   10.8820 C.cat  13  ARG13       0.5346
     51  NH1       62.9760   23.0640   10.1570 N.pl3  13  ARG13       0.1354
     52  NH2       61.2760   22.7580   11.6540 N.pl3  13  ARG13       0.1354
     53  N         58.5550   41.0300   12.0120 N.3    35  ILE35      -0.1245
     54  CA        57.1710   40.5840   12.1940 C.3    35  ILE35       0.1561
     55  C         56.1480   41.5700   11.6510 C.2    35  ILE35       0.2260
     56  O         55.2050   41.1710   10.9710 O.2    35  ILE35      -0.2867
     57  CB        57.0280   40.3490   13.7020 C.3    35  ILE35       0.0252
     58  CG1       57.6610   39.0060   13.8810 C.3    35  ILE35       0.0019
     59  CG2       55.6100   40.3540   14.2510 C.3    35  ILE35       0.0019
     60  CD1       58.2940   38.8490   15.2720 C.3    35  ILE35       0.0001
     61  N         56.2110   41.4510    7.9960 N.3    38  TRP38      -0.1241
     62  CA        55.6260   40.2010    7.5390 C.3    38  TRP38       0.1605
     63  C         54.1040   40.2880    7.6080 C.2    38  TRP38       0.2264
     64  O         53.3860   39.9240    6.6700 O.2    38  TRP38      -0.2867
     65  CB        56.1000   39.0380    8.4050 C.3    38  TRP38       0.0550
     66  CG        55.7550   37.6510    7.8160 C.ar   38  TRP38       0.0003
     67  CD1       54.9080   36.7960    8.5020 C.ar   38  TRP38       0.0946
     68  CD2       56.2300   37.0860    6.6350 C.ar   38  TRP38       0.0152
     69  NE1       54.8480   35.7020    7.7750 N.ar   38  TRP38      -0.2442
     70  CE2       55.5980   35.8250    6.6760 C.ar   38  TRP38       0.0810
     71  CE3       57.0770   37.4020    5.5520 C.ar   38  TRP38       0.0012
     72  CZ2       55.8030   34.8740    5.6680 C.ar   38  TRP38       0.0191
     73  CZ3       57.2690   36.4440    4.5320 C.ar   38  TRP38       0.0001
     74  CH2       56.6450   35.1830    4.5930 C.ar   38  TRP38       0.0015
     75  N         54.9580   37.5480    1.9680 N.3    44  LYS44      -0.1245
     76  CA        54.4870   36.1880    2.0790 C.3    44  LYS44       0.1561
     77  C         53.9910   35.5710    0.7600 C.2    44  LYS44       0.2260
     78  O         54.4740   34.4890    0.4350 O.2    44  LYS44      -0.2867
     79  CB        53.4070   36.1520    3.1660 C.3    44  LYS44       0.0271
     80  CG        52.8240   34.7500    3.3770 C.3    44  LYS44       0.0035
     81  CD        51.9460   34.6580    4.5960 C.3    44  LYS44       0.0206
     82  CE        51.3540   33.2580    4.7660 C.3    44  LYS44       0.1093
     83  NZ        52.2470   32.2950    5.3930 N.3    44  LYS44      -0.1314
     84  N         56.5040   30.8440    3.3030 N.3    51  GLN51      -0.1231
     85  CA        57.2710   30.9180    4.5290 C.3    51  GLN51       0.1698
     86  C         58.7250   31.3100    4.2740 C.2    51  GLN51       0.2592
     87  O         59.1770   31.3540    3.1170 O.2    51  GLN51      -0.2718
     88  CB        57.2240   29.5680    5.2400 C.3    51  GLN51       0.0381
     89  CG        55.8010   29.3090    5.7470 C.3    51  GLN51       0.0905
     90  CD        55.7490   28.1530    6.7240 C.2    51  GLN51       0.2608
     91  OE1       56.1940   27.0260    6.4600 O.2    51  GLN51      -0.2717
     92  NE2       55.2170   28.4420    7.8950 N.am   51  GLN51      -0.0878
     93  N         59.4070   31.6040    5.3820 N.am   52  LEU52      -0.1966
     94  CA        60.8360   31.8960    5.4170 C.3    52  LEU52       0.1713
     95  C         61.5780   30.7580    6.1610 C.2    52  LEU52       0.2458
     96  O         60.9280   30.1150    6.9890 O.2    52  LEU52      -0.2730
     97  CB        61.0470   33.2430    6.1270 C.3    52  LEU52       0.0310
     98  CG        60.4940   34.5190    5.4430 C.3    52  LEU52       0.0022
     99  CD1       60.9060   35.7420    6.2630 C.3    52  LEU52       0.0001
    100  CD2       61.0060   34.6290    4.0190 C.3    52  LEU52       0.0001
    101  N         62.8860   30.4380    6.0180 N.am   53  PRO53      -0.2727
    102  CA        63.8690   31.1590    5.2010 C.3    53  PRO53       0.1402
    103  C         63.7560   31.1290    3.6850 C.2    53  PRO53       0.2269
    104  O         63.2150   30.2020    3.0720 O.2    53  PRO53      -0.2865
    105  CB        65.1890   30.5860    5.6760 C.3    53  PRO53       0.0296
    106  CG        64.8400   29.1590    5.9610 C.3    53  PRO53       0.0237
    107  CD        63.5620   29.3500    6.7550 C.3    53  PRO53       0.0939
    108  N         62.9690   26.2780    2.1210 N.3    64  GLN64      -0.1231
    109  CA        63.0450   25.0620    2.9370 C.3    64  GLN64       0.1698
    110  C         64.4510   24.9440    3.4850 C.2    64  GLN64       0.2593
    111  O         65.4050   24.6720    2.7470 O.2    64  GLN64      -0.2718
    112  CB        62.6990   23.7870    2.1330 C.3    64  GLN64       0.0381
    113  CG        61.2380   23.7570    1.6600 C.3    64  GLN64       0.0905
    114  CD        60.2660   23.4110    2.7720 C.2    64  GLN64       0.2608
    115  OE1       60.6070   23.0830    3.8960 O.2    64  GLN64      -0.2717
    116  NE2       58.9680   23.4130    2.5390 N.am   64  GLN64      -0.0878
    117  N         64.5350   25.0810    4.8100 N.am   65  SER65      -0.1938
    118  CA        65.7560   25.1530    5.5620 C.3    65  SER65       0.2055
    119  C         66.6260   23.9410    5.3070 C.2    65  SER65       0.2643
    120  O         67.8340   24.0960    5.0820 O.2    65  SER65      -0.2714
    121  CB        65.4130   25.2710    7.0540 C.3    65  SER65       0.2130
    122  OG        64.7630   24.1570    7.6240 O.3    65  SER65      -0.2179
    123  N         66.0390   22.7530    5.1820 N.am   66  ASN66      -0.1971
    124  CA        66.8560   21.5580    4.9830 C.3    66  ASN66       0.1688
    125  C         67.2780   21.3740    3.5310 C.2    66  ASN66       0.2292
    126  O         68.3100   20.7520    3.2510 O.2    66  ASN66      -0.2864
    127  CB        66.1410   20.2880    5.4190 C.3    66  ASN66       0.1181
    128  CG        66.0110   20.2500    6.9220 C.2    66  ASN66       0.2629
    129  OD1       66.9630   20.1720    7.6910 O.2    66  ASN66      -0.2716
    130  ND2       64.7930   20.2980    7.4390 N.am   66  ASN66      -0.0877
    131  N         65.6610   16.8930   12.2530 N.3    97  GLU97      -0.1245
    132  CA        64.4440   17.6010   11.9020 C.3    97  GLU97       0.1567
    133  C         63.2110   17.1330   12.6820 C.2    97  GLU97       0.2260
    134  O         62.3860   17.9480   13.0980 O.2    97  GLU97      -0.2867
    135  CB        64.2240   17.4400   10.4020 C.3    97  GLU97       0.0388
    136  CG        62.9970   18.1300    9.8200 C.3    97  GLU97       0.1160
    137  CD        62.8600   19.6040   10.2070 C.2    97  GLU97       0.3649
    138  OE1       63.8530   20.3360   10.2920 O.co2  97  GLU97      -0.2457
    139  OE2       61.7270   20.0300   10.4210 O.co2  97  GLU97      -0.2457
    140  N         59.9060   22.9370   18.2740 N.3   104  VAL104     -0.1245
    141  CA        59.1640   24.0900   17.7790 C.3   104  VAL104      0.1561
    142  C         57.7350   24.0450   18.3370 C.2   104  VAL104      0.2260
    143  O         57.2440   25.0380   18.8700 O.2   104  VAL104     -0.2867
    144  CB        59.2460   24.0140   16.2410 C.3   104  VAL104      0.0252
    145  CG1       58.3180   25.0030   15.5550 C.3   104  VAL104      0.0019
    146  CG2       60.6390   24.4620   15.8010 C.3   104  VAL104      0.0019
    147  N         56.3200   27.1240   20.7330 N.3   108  TYR108     -0.1241
    148  CA        55.3010   28.0410   20.2470 C.3   108  TYR108      0.1605
    149  C         53.8940   27.7150   20.6800 C.2   108  TYR108      0.2264
    150  O         53.0390   28.5990   20.6590 O.2   108  TYR108     -0.2867
    151  CB        55.3270   28.1120   18.7200 C.3   108  TYR108      0.0534
    152  CG        56.5670   28.8520   18.2090 C.ar  108  TYR108     -0.0201
    153  CD1       56.5780   30.2440   18.2200 C.ar  108  TYR108     -0.0009
    154  CD2       57.6930   28.1460   17.7530 C.ar  108  TYR108     -0.0009
    155  CE1       57.7010   30.9450   17.7820 C.ar  108  TYR108      0.0417
    156  CE2       58.8280   28.8540   17.3130 C.ar  108  TYR108      0.0417
    157  CZ        58.8140   30.2520   17.3290 C.ar  108  TYR108      0.1957
    158  OH        59.8610   31.0040   16.8490 O.3   108  TYR108     -0.2866
    159  N         61.0670   33.1350   18.1540 N.3   205  GLY205     -0.1225
    160  CA        60.2870   34.3460   17.8940 C.3   205  GLY205      0.1811
    161  C         59.4140   34.8790   19.0280 C.2   205  GLY205      0.2280
    162  O         58.9880   36.0240   19.0290 O.2   205  GLY205     -0.2866
@<TRIPOS>BOND
     1    78    77    2
     2    77    76    1
     3   113   112    1
     4   113   114    1
     5    75    76    1
     6    76    79    1
     7   108   109    1
     8   112   109    1
     9   116   114   am
    10   111   110    2
    11   114   115    2
    12   109   110    1
    13   104   103    2
    14    87    86    2
    15    79    80    1
    16   126   125    2
    17    84    85    1
    18    80    81    1
    19   110   117   am
    20   125   124    1
    21   103   102    1
    22   100    98    1
    23    86    85    1
    24    86    93   am
    25    85    88    1
    26    73    74   ar
    27    73    71   ar
    28    74    72   ar
    29    81    82    1
    30    82    83    1
    31   117   118    1
    32   124   123    1
    33   124   127    1
    34   120   119    2
    35   123   119   am
    36   102   105    1
    37   102   101    1
    38    88    89    1
    39   119   118    1
    40    93    94    1
    41    94    97    1
    42    94    95    1
    43   127   128    1
    44    98    97    1
    45    98    99    1
    46    71    68   ar
    47   118   121    1
    48    72    70   ar
    49   105   106    1
    50    89    90    1
    51   106   107    1
    52   101    95   am
    53   101   107    1
    54    95    96    2
    55    91    90    2
    56     1     2    1
    57    68    70   ar
    58    68    66   ar
    59    64    63    2
    60    70    69   ar
    61    90    92   am
    62   128   130   am
    63   128   129    2
    64   121   122    1
    65    62    63    1
    66    62    61    1
    67    62    65    1
    68     2     5    1
    69     2     3    1
    70    69    67   ar
    71    66    65    1
    72    66    67   ar
    73     5     6    1
    74     4     3    2
    75     3    13   am
    76     7     6   ar
    77     7     9   ar
    78     6     8   ar
    79    23    22   ar
    80    23    21   ar
    81    45    44    2
    82    13    14    1
    83    22    20   ar
    84     9    11   ar
    85   136   137    1
    86   136   135    1
    87    21    19   ar
    88    51    50    1
    89   137   138   ar
    90   137   139   ar
    91    48    49    1
    92    48    47    1
    93    20    18   ar
    94   135   132    1
    95    46    47    1
    96    46    43    1
    97     8    10   ar
    98    44    43    1
    99    19    18   ar
   100    14    17    1
   101    14    15    1
   102    18    17    1
   103    50    49    2
   104    50    52    1
   105    11    10   ar
   106    11    12    1
   107    56    55    2
   108    43    42    1
   109    16    15    2
   110    15    24   am
   111    55    54    1
   112   132   131    1
   113   132   133    1
   114    53    54    1
   115    54    57    1
   116    42    40   am
   117    24    30    1
   118    24    25    1
   119   133   134    2
   120    30    29    1
   121    25    28    1
   122    25    26    1
   123    34    33    2
   124    40    41    2
   125    40    39    1
   126    57    58    1
   127    57    59    1
   128    28    29    1
   129    58    60    1
   130    31    26   am
   131    31    32    1
   132    37    35    1
   133    26    27    2
   134    39    38    1
   135    33    32    1
   136    32    35    1
   137   145   144    1
   138    35    36    1
   139   146   144    1
   140   144   141    1
   141   158   157    1
   142   156   157   ar
   143   156   154   ar
   144   157   155   ar
   145   154   152   ar
   146   141   140    1
   147   141   142    1
   148   155   153   ar
   149   160   159    1
   150   160   161    1
   151   152   153   ar
   152   152   151    1
   153   142   143    2
   154   151   148    1
   155   161   162    2
   156   148   149    1
   157   148   147    1
   158   150   149    2
