@<TRIPOS>MOLECULE
tmp/1gm5A00.pdb
 143 138 0 0 0
SMALL
GASTEIGER

@<TRIPOS>ATOM
      1  N         -4.4050   20.6460   14.9430 N.3   361  PHE361     -0.1227
      2  CA        -5.2420   20.4010   16.0910 C.3   361  PHE361      0.1736
      3  C         -5.3520   21.5440   17.1140 C.2   361  PHE361      0.2595
      4  O         -4.6720   22.5530   16.9990 O.2   361  PHE361     -0.2718
      5  CB        -4.6770   19.1850   16.7920 C.3   361  PHE361      0.0547
      6  CG        -3.3390   19.4210   17.4050 C.ar  361  PHE361     -0.0202
      7  CD1       -3.2120   20.2280   18.5170 C.ar  361  PHE361     -0.0042
      8  CD2       -2.2110   18.8450   16.8760 C.ar  361  PHE361     -0.0042
      9  CE1       -1.9810   20.4470   19.0950 C.ar  361  PHE361     -0.0003
     10  CE2       -0.9750   19.0630   17.4520 C.ar  361  PHE361     -0.0003
     11  CZ        -0.8610   19.8590   18.5620 C.ar  361  PHE361     -0.0000
     12  N         -6.2020   21.3220   18.1260 N.am  362  LYS362     -0.1966
     13  CA        -6.4920   22.1950   19.2960 C.3   362  LYS362      0.1728
     14  C         -5.3580   22.4580   20.3230 C.2   362  LYS362      0.2616
     15  O         -4.7200   23.5220   20.3390 O.2   362  LYS362     -0.2715
     16  CB        -7.6870   21.5610   20.0310 C.3   362  LYS362      0.0311
     17  CG        -8.4950   20.6090   19.1230 C.3   362  LYS362      0.0038
     18  CD        -9.2660   19.5370   19.8770 C.3   362  LYS362      0.0206
     19  CE        -9.7700   18.4340   18.9220 C.3   362  LYS362      0.1093
     20  NZ       -11.1290   18.6730   18.3300 N.3   362  LYS362     -0.1314
     21  N         -5.1470   21.4650   21.1830 N.am  363  LEU363     -0.1963
     22  CA        -4.2840   21.5490   22.3510 C.3   363  LEU363      0.1728
     23  C         -5.2490   21.1010   23.4160 C.2   363  LEU363      0.2616
     24  O         -6.4150   20.9200   23.1170 O.2   363  LEU363     -0.2715
     25  CB        -3.7780   22.9770   22.5840 C.3   363  LEU363      0.0311
     26  CG        -2.3890   23.2800   23.2260 C.3   363  LEU363      0.0022
     27  CD1       -1.3340   22.2020   23.1320 C.3   363  LEU363      0.0001
     28  CD2       -1.7590   24.5440   22.6900 C.3   363  LEU363      0.0001
     29  N         -4.7970   20.8620   24.6380 N.am  364  THR364     -0.1951
     30  CA        -5.7140   20.4440   25.6890 C.3   364  THR364      0.1897
     31  C         -5.5210   21.4200   26.8110 C.2   364  THR364      0.2313
     32  O         -4.5040   22.1070   26.8740 O.2   364  THR364     -0.2863
     33  CB        -5.3990   19.0840   26.2080 C.3   364  THR364      0.1794
     34  OG1       -4.8470   19.2460   27.5150 O.3   364  THR364     -0.2208
     35  CG2       -4.2760   18.5400   25.4690 C.3   364  THR364      0.0378
     36  N         -2.3990   20.0550   28.4070 N.3   367  GLN367     -0.1245
     37  CA        -1.0680   20.3320   27.9130 C.3   367  GLN367      0.1566
     38  C         -0.8410   21.7670   28.2180 C.2   367  GLN367      0.2260
     39  O          0.2880   22.2010   28.4440 O.2   367  GLN367     -0.2867
     40  CB        -0.9810   20.0780   26.4080 C.3   367  GLN367      0.0367
     41  CG        -1.5650   18.7100   26.0210 C.3   367  GLN367      0.0905
     42  CD        -2.0020   18.5930   24.5710 C.2   367  GLN367      0.2608
     43  OE1       -1.8360   17.5390   23.9550 O.2   367  GLN367     -0.2717
     44  NE2       -2.5770   19.6580   24.0310 N.am  367  GLN367     -0.0878
     45  N          1.3390    7.1660   26.4770 N.3   392  VAL392     -0.1231
     46  CA         1.7140    7.1930   25.0620 C.3   392  VAL392      0.1692
     47  C          0.6230    7.7910   24.2220 C.2   392  VAL392      0.2593
     48  O         -0.4140    7.1840   24.0090 O.2   392  VAL392     -0.2718
     49  CB         1.9320    5.8040   24.4500 C.3   392  VAL392      0.0266
     50  CG1        2.9360    5.0080   25.2510 C.3   392  VAL392      0.0020
     51  CG2        0.5940    5.0750   24.3180 C.3   392  VAL392      0.0020
     52  N          0.8740    8.9730   23.7030 N.am  393  GLY393     -0.1942
     53  CA        -0.0900    9.5870   22.8350 C.3   393  GLY393      0.2014
     54  C         -1.0430   10.4140   23.6440 C.2   393  GLY393      0.2640
     55  O         -2.2160   10.1570   23.6820 O.2   393  GLY393     -0.2714
     56  N         -0.5270   11.4270   24.2960 N.am  394  SER394     -0.1935
     57  CA        -1.3460   12.2490   25.1370 C.3   394  SER394      0.2055
     58  C         -1.0080   13.6640   24.7710 C.2   394  SER394      0.2644
     59  O         -1.7690   14.6070   25.0690 O.2   394  SER394     -0.2714
     60  CB        -0.9580   11.9870   26.5780 C.3   394  SER394      0.2130
     61  OG         0.3730   11.4950   26.6550 O.3   394  SER394     -0.2179
     62  N          0.1610   13.7720   24.1350 N.am  395  GLY395     -0.1939
     63  CA         0.7420   15.0260   23.7160 C.3   395  GLY395      0.2014
     64  C          2.0050   15.3630   24.4730 C.2   395  GLY395      0.2639
     65  O          2.3840   16.5220   24.5860 O.2   395  GLY395     -0.2714
     66  N          2.6730   14.3660   25.0180 N.am  396  LYS396     -0.1963
     67  CA         3.8390   14.6880   25.7950 C.3   396  LYS396      0.1728
     68  C          4.6670   15.5210   24.8640 C.2   396  LYS396      0.2617
     69  O          4.9360   16.6750   25.1610 O.2   396  LYS396     -0.2715
     70  CB         4.5760   13.4270   26.2270 C.3   396  LYS396      0.0311
     71  CG         4.1570   12.8730   27.5950 C.3   396  LYS396      0.0038
     72  CD         4.5640   11.4160   27.7630 C.3   396  LYS396      0.0206
     73  CE         3.3620   10.4650   27.5640 C.3   396  LYS396      0.1093
     74  NZ         2.7170    9.9920   28.8420 N.3   396  LYS396     -0.1314
     75  N          5.0040   14.9520   23.6990 N.am  397  THR397     -0.1937
     76  CA         5.9790   15.5480   22.7510 C.3   397  THR397      0.2028
     77  C          5.8450   17.0320   22.4590 C.2   397  THR397      0.2642
     78  O          6.7320   17.8030   22.7790 O.2   397  THR397     -0.2714
     79  CB         6.0150   14.8140   21.4130 C.3   397  THR397      0.1808
     80  OG1        6.2530   13.4130   21.6390 O.3   397  THR397     -0.2208
     81  CG2        7.2410   15.3210   20.6010 C.3   397  THR397      0.0379
     82  N          4.7550   17.4100   21.8090 N.am  398  VAL398     -0.1977
     83  CA         4.4350   18.8150   21.6300 C.3   398  VAL398      0.1596
     84  C          5.0820   19.6260   22.7290 C.2   398  VAL398      0.2287
     85  O          6.1630   20.1750   22.5510 O.2   398  VAL398     -0.2864
     86  CB         2.9430   19.0180   21.7340 C.3   398  VAL398      0.0276
     87  CG1        2.5560   20.3800   21.2930 C.3   398  VAL398      0.0022
     88  CG2        2.2330   17.9400   20.9420 C.3   398  VAL398      0.0022
     89  N         11.7810   14.6560   13.9190 N.3   430  ARG430     -0.1245
     90  CA        10.5820   15.3460   14.3780 C.3   430  ARG430      0.1563
     91  C         10.8440   16.7370   14.9410 C.2   430  ARG430      0.2260
     92  O         10.1390   17.6810   14.6310 O.2   430  ARG430     -0.2867
     93  CB         9.7380   14.4830   15.3460 C.3   430  ARG430      0.0307
     94  CG         8.6560   13.6490   14.6160 C.3   430  ARG430      0.0489
     95  CD         7.7160   12.8440   15.4930 C.3   430  ARG430      0.2205
     96  NE         6.9730   13.6810   16.4290 N.pl3 430  ARG430     -0.0865
     97  CZ         5.9060   13.2670   17.1140 C.cat 430  ARG430      0.5346
     98  NH1        5.4580   12.0340   16.9680 N.pl3 430  ARG430      0.1354
     99  NH2        5.2770   14.0820   17.9460 N.pl3 430  ARG430      0.1354
    100  N         10.6280   13.1630   30.5480 N.3   511  MET511     -0.1245
    101  CA         9.3310   12.6320   30.1630 C.3   511  MET511      0.1570
    102  C          9.2660   11.1410   30.3650 C.2   511  MET511      0.2261
    103  O         10.2510   10.4520   30.1610 O.2   511  MET511     -0.2867
    104  CB         9.0100   12.9690   28.7090 C.3   511  MET511      0.0387
    105  CG        10.1850   13.1920   27.7590 C.3   511  MET511      0.0595
    106  SD         9.5810   14.0840   26.2710 S.3   511  MET511     -0.1393
    107  CE         9.6510   12.8430   24.9760 C.3   511  MET511      0.0692
    108  N         -5.7010   13.4450   24.6150 N.2   537  PRO537     -0.2571
    109  CA        -6.1040   14.0290   23.3120 C.3   537  PRO537      0.2015
    110  C         -7.2920   13.4090   22.5890 C.2   537  PRO537      0.2563
    111  O         -7.5290   12.1920   22.6720 O.2   537  PRO537     -0.2721
    112  CB        -4.8710   13.8720   22.4300 C.2   537  PRO537      0.0085
    113  CG        -3.8260   13.1930   23.2600 C.2   537  PRO537      0.0180
    114  CD        -4.3820   12.8110   24.5840 C.2   537  PRO537      0.0938
    115  N         -8.0170   14.2780   21.8720 N.am  538  PRO538     -0.2499
    116  CA        -9.2040   13.9150   21.0760 C.3   538  PRO538      0.1488
    117  C         -8.9590   13.0810   19.8190 C.2   538  PRO538      0.2276
    118  O         -7.8510   12.5800   19.5280 O.2   538  PRO538     -0.2865
    119  CB        -9.8430   15.2590   20.6880 C.3   538  PRO538      0.0556
    120  CG        -8.9450   16.3220   21.1820 C.2   538  PRO538     -0.0078
    121  CD        -7.7300   15.7190   21.8350 C.2   538  PRO538      0.0634
    122  N         -9.1590   10.7930   19.5210 N.3   540  ARG540     -0.1245
    123  CA        -8.4490    9.6120   19.7400 C.3   540  ARG540      0.1563
    124  C         -9.2950    8.5900   20.3130 C.2   540  ARG540      0.2260
    125  O         -9.8340    8.6560   21.4680 O.2   540  ARG540     -0.2867
    126  CB        -7.1860    9.6960   20.4800 C.3   540  ARG540      0.0307
    127  CG        -6.6540    8.3390   20.1650 C.3   540  ARG540      0.0489
    128  CD        -5.2860    8.4090   19.5390 C.3   540  ARG540      0.2205
    129  NE        -5.1010    7.4850   18.4040 N.pl3 540  ARG540     -0.0865
    130  CZ        -3.8760    7.1730   17.9870 C.cat 540  ARG540      0.5346
    131  NH1       -2.8310    7.7110   18.6750 N.pl3 540  ARG540      0.1354
    132  NH2       -3.6750    6.3520   16.9350 N.pl3 540  ARG540      0.1354
    133  N         -1.1690    3.4570   17.0990 N.3   661  ARG661     -0.1245
    134  CA        -0.6270    4.4910   16.2490 C.3   661  ARG661      0.1563
    135  C         -1.1940    4.4880   14.8340 C.2   661  ARG661      0.2260
    136  O         -1.3700    3.4400   14.2190 O.2   661  ARG661     -0.2867
    137  CB         0.8680    4.2660   16.1260 C.3   661  ARG661      0.0307
    138  CG         1.2960    2.8980   16.6510 C.3   661  ARG661      0.0489
    139  CD         1.9410    3.0190   18.0010 C.3   661  ARG661      0.2205
    140  NE         1.6410    4.3640   18.4550 N.pl3 661  ARG661     -0.0865
    141  CZ         1.3330    4.6730   19.6890 C.cat 661  ARG661      0.5346
    142  NH1        1.3340    3.7320   20.6250 N.pl3 661  ARG661      0.1354
    143  NH2        1.0220    5.9250   19.9870 N.pl3 661  ARG661      0.1354
@<TRIPOS>BOND
     1    89    90    1
     2   136   135    2
     3    90    91    1
     4    90    93    1
     5    94    93    1
     6    94    95    1
     7    92    91    2
     8   135   134    1
     9     1     2    1
    10    95    96    1
    11     2     5    1
    12     2     3    1
    13   137   134    1
    14   137   138    1
    15   134   133    1
    16    96    97    2
    17   138   139    1
    18     5     6    1
    19     8     6   ar
    20     8    10   ar
    21   132   130    1
    22    98    97    1
    23     4     3    2
    24     3    12   am
    25    97    99    1
    26     6     7   ar
    27    10    11   ar
    28   130   129    2
    29   130   131    1
    30   139   140    1
    31    12    13    1
    32    20    19    1
    33   129   128    1
    34   140   141    2
    35     7     9   ar
    36    11     9   ar
    37    19    18    1
    38    17    18    1
    39    17    16    1
    40    13    16    1
    41    13    14    1
    42   122   123    1
    43   118   117    2
    44   128   127    1
    45   141   143    1
    46   141   142    1
    47   123   124    1
    48   123   126    1
    49   117   116    1
    50   127   126    1
    51   124   125    2
    52    14    15    2
    53    14    21   am
    54    81    79    1
    55   119   116    1
    56   119   120    1
    57    88    86    1
    58   116   115    1
    59   120   121    2
    60    21    22    1
    61    87    86    1
    62    79    80    1
    63    79    76    1
    64    83    86    1
    65    83    82    1
    66    83    84    1
    67    82    77   am
    68   121   115    1
    69   115   110   am
    70    22    25    1
    71    22    23    1
    72   112   113    2
    73   112   109    1
    74    77    76    1
    75    77    78    2
    76    85    84    2
    77    25    26    1
    78   110   111    2
    79   110   109    1
    80    28    26    1
    81    76    75    1
    82    53    54    1
    83    53    52    1
    84    24    23    2
    85    27    26    1
    86   113   114    1
    87   109   108    1
    88    23    29   am
    89    54    55    2
    90    54    56   am
    91    75    68   am
    92    52    47   am
    93    63    62    1
    94    63    64    1
    95    43    42    2
    96    48    47    2
    97    44    42   am
    98    62    58   am
    99    47    46    1
   100    56    57    1
   101    51    49    1
   102    49    46    1
   103    49    50    1
   104    64    65    2
   105    64    66   am
   106    42    41    1
   107   114   108    2
   108    29    30    1
   109    58    59    2
   110    58    57    1
   111    68    69    2
   112    68    67    1
   113   107   106    1
   114    66    67    1
   115    46    45    1
   116    57    60    1
   117    35    33    1
   118    30    33    1
   119    30    31    1
   120    67    70    1
   121    41    40    1
   122    33    34    1
   123    70    71    1
   124   106   105    1
   125    40    37    1
   126    60    61    1
   127    31    32    2
   128    73    72    1
   129    73    74    1
   130    71    72    1
   131   105   104    1
   132    37    38    1
   133    37    36    1
   134    38    39    2
   135   104   101    1
   136   103   102    2
   137   101   102    1
   138   101   100    1
