@<TRIPOS>MOLECULE
tmp/1gm7B00.pdb
 147 143 0 0 0
SMALL
GASTEIGER

@<TRIPOS>ATOM
      1  N         14.9650    1.3430   -1.7210 N.3     1  SER1       -0.1217
      2  CA        15.6430    2.6580   -1.6400 C.3     1  SER1        0.1889
      3  C         16.5470    2.8920   -2.8380 C.2     1  SER1        0.2288
      4  O         17.2580    1.9400   -3.2530 O.2     1  SER1       -0.2866
      5  CB        16.5760    2.6820   -0.4350 C.3     1  SER1        0.2089
      6  OG        15.8240    2.6860    0.7390 O.3     1  SER1       -0.2183
      7  N         15.4420    7.1650   -0.1170 N.3    22  PRO22      -0.2102
      8  CA        15.3310    6.0400    0.8150 C.3    22  PRO22       0.1504
      9  C         13.8780    5.6610    0.9710 C.2    22  PRO22       0.2576
     10  O         13.0210    6.5250    1.1980 O.2    22  PRO22      -0.2718
     11  CB        15.9410    6.5810    2.1450 C.3    22  PRO22       0.0282
     12  CG        15.5930    8.0510    2.0390 C.3    22  PRO22       0.0208
     13  CD        15.7950    8.4130    0.5780 C.3    22  PRO22       0.0893
     14  N         13.5510    4.3810    0.8170 N.am   23  GLN23      -0.1966
     15  CA        12.1950    3.8680    0.8360 C.3    23  GLN23       0.1733
     16  C         11.9780    3.0080    2.0780 C.2    23  GLN23       0.2616
     17  O         12.3590    1.8690    2.1860 O.2    23  GLN23      -0.2715
     18  CB        11.9500    3.0530   -0.4530 C.3    23  GLN23       0.0408
     19  CG        11.9660    3.9460   -1.7070 C.3    23  GLN23       0.0908
     20  CD        11.7070    3.1540   -2.9910 C.2    23  GLN23       0.2608
     21  OE1       12.6100    2.3910   -3.3820 O.2    23  GLN23      -0.2717
     22  NE2       10.5460    3.3920   -3.5810 N.am   23  GLN23      -0.0878
     23  N         11.2180    3.6440    2.9840 N.am   24  PHE24      -0.1974
     24  CA        10.8570    3.0350    4.2520 C.3    24  PHE24       0.1639
     25  C          9.3600    2.8130    4.3820 C.2    24  PHE24       0.2290
     26  O          8.8890    2.3380    5.4330 O.2    24  PHE24      -0.2864
     27  CB        11.2020    4.0200    5.3780 C.3    24  PHE24       0.0560
     28  CG        12.6450    4.4080    5.4970 C.ar   24  PHE24      -0.0200
     29  CD1       13.5210    3.5310    6.1600 C.ar   24  PHE24      -0.0042
     30  CD2       13.1070    5.6260    5.0490 C.ar   24  PHE24      -0.0042
     31  CE1       14.8490    3.8910    6.3480 C.ar   24  PHE24      -0.0003
     32  CE2       14.4460    5.9800    5.2430 C.ar   24  PHE24      -0.0003
     33  CZ        15.3090    5.0990    5.8750 C.ar   24  PHE24      -0.0000
     34  N         21.1160   10.7510    8.5770 N.3    56  VAL56      -0.1231
     35  CA        21.3950    9.7920    7.5130 C.3    56  VAL56       0.1692
     36  C         21.3980   10.4870    6.1540 C.2    56  VAL56       0.2592
     37  O         22.1130   10.0250    5.2590 O.2    56  VAL56      -0.2718
     38  CB        20.3750    8.6400    7.5720 C.3    56  VAL56       0.0266
     39  CG1       20.6250    7.6030    6.4890 C.3    56  VAL56       0.0020
     40  CG2       20.4150    7.9570    8.9500 C.3    56  VAL56       0.0020
     41  N         20.7070   11.5830    5.9680 N.am   57  PHE57      -0.1976
     42  CA        20.5690   12.3160    4.7060 C.3    57  PHE57       0.1639
     43  C         20.9610   13.7700    4.9370 C.2    57  PHE57       0.2290
     44  O         20.2150   14.5110    5.6180 O.2    57  PHE57      -0.2864
     45  CB        19.1300   12.1860    4.1600 C.3    57  PHE57       0.0560
     46  CG        18.5980   10.7810    4.3200 C.ar   57  PHE57      -0.0200
     47  CD1       19.1250    9.7470    3.5740 C.ar   57  PHE57      -0.0042
     48  CD2       17.5970   10.4680    5.2200 C.ar   57  PHE57      -0.0042
     49  CE1       18.6900    8.4290    3.6990 C.ar   57  PHE57      -0.0003
     50  CE2       17.1460    9.1510    5.3950 C.ar   57  PHE57      -0.0003
     51  CZ        17.7020    8.1370    4.6280 C.ar   57  PHE57      -0.0000
     52  N         22.2510    7.0890    2.2120 N.3    67  SER67      -0.1202
     53  CA        22.2910    5.6330    2.4180 C.3    67  SER67       0.2020
     54  C         21.1660    4.9440    1.6410 C.2    67  SER67       0.2619
     55  O         20.1220    5.5410    1.3070 O.2    67  SER67      -0.2717
     56  CB        22.0240    5.2490    3.9000 C.3    67  SER67       0.2103
     57  OG        23.1410    5.5000    4.7540 O.3    67  SER67      -0.2182
     58  N         21.3460    3.6510    1.3720 N.am   68  THR68      -0.1938
     59  CA        20.3170    2.7110    0.9490 C.3    68  THR68       0.2028
     60  C         20.5880    1.4110    1.7400 C.2    68  THR68       0.2642
     61  O         21.7480    1.2060    2.1440 O.2    68  THR68      -0.2714
     62  CB        20.2070    2.4260   -0.5550 C.3    68  THR68       0.1808
     63  OG1       21.3800    1.7360   -1.0120 O.3    68  THR68      -0.2208
     64  CG2       20.0300    3.7060   -1.3760 C.3    68  THR68       0.0379
     65  N         19.5510    0.5860    2.0090 N.am   69  ALA69      -0.1977
     66  CA        19.8460   -0.6860    2.7010 C.3    69  ALA69       0.1597
     67  C         20.8610   -1.5160    1.9120 C.2    69  ALA69       0.2287
     68  O         20.7690   -1.6370    0.6880 O.2    69  ALA69      -0.2864
     69  CB        18.5190   -1.4470    2.8920 C.3    69  ALA69       0.0319
     70  N         21.5990   -5.0570    2.3130 N.3    71  PHE71      -0.1241
     71  CA        21.2120   -6.4030    1.9460 C.3    71  PHE71       0.1605
     72  C         22.3740   -7.3700    1.7300 C.2    71  PHE71       0.2264
     73  O         22.2560   -8.3230    0.9350 O.2    71  PHE71      -0.2867
     74  CB        20.2610   -6.4270    0.7480 C.3    71  PHE71       0.0534
     75  CG        18.8340   -6.0630    1.0450 C.ar   71  PHE71      -0.0203
     76  CD1       18.0170   -7.0080    1.6380 C.ar   71  PHE71      -0.0042
     77  CD2       18.3110   -4.8230    0.6980 C.ar   71  PHE71      -0.0042
     78  CE1       16.6870   -6.7550    1.9120 C.ar   71  PHE71      -0.0003
     79  CE2       16.9760   -4.5510    0.9910 C.ar   71  PHE71      -0.0003
     80  CZ        16.1770   -5.5090    1.5790 C.ar   71  PHE71      -0.0000
     81  N         27.6660    7.0590   12.5130 N.3   154  TRP154     -0.1241
     82  CA        26.7350    7.8170   11.6630 C.3   154  TRP154      0.1605
     83  C         26.6850    9.2760   12.1060 C.2   154  TRP154      0.2264
     84  O         26.1820   10.1270   11.3430 O.2   154  TRP154     -0.2867
     85  CB        25.3420    7.1990   11.7500 C.3   154  TRP154      0.0550
     86  CG        24.6990    6.8790   10.4250 C.ar  154  TRP154      0.0003
     87  CD1       24.5980    7.7110    9.3240 C.ar  154  TRP154      0.0946
     88  CD2       24.0890    5.6350   10.0450 C.ar  154  TRP154      0.0152
     89  NE1       23.9480    7.0520    8.3070 N.ar  154  TRP154     -0.2442
     90  CE2       23.6400    5.7880    8.7160 C.ar  154  TRP154      0.0810
     91  CE3       23.9170    4.4060   10.6960 C.ar  154  TRP154      0.0012
     92  CZ2       22.9530    4.7900    8.0140 C.ar  154  TRP154      0.0191
     93  CZ3       23.2550    3.4430   10.0060 C.ar  154  TRP154      0.0001
     94  CH2       22.7800    3.6130    8.6920 C.ar  154  TRP154      0.0015
     95  N         24.7080   -1.5840    5.3120 N.3   177  ILE177     -0.1245
     96  CA        24.1350   -0.3630    4.7700 C.3   177  ILE177      0.1561
     97  C         25.0820    0.2000    3.7020 C.2   177  ILE177      0.2260
     98  O         26.2870    0.3260    3.9020 O.2   177  ILE177     -0.2867
     99  CB        24.0300    0.7250    5.8870 C.3   177  ILE177      0.0252
    100  CG1       23.3460    0.2360    7.1530 C.3   177  ILE177      0.0019
    101  CG2       23.3240    1.9470    5.3140 C.3   177  ILE177      0.0019
    102  CD1       21.8380    0.0240    7.0870 C.3   177  ILE177      0.0001
    103  N         18.7610   -1.0480   -4.4000 N.3   241  ALA241     -0.1245
    104  CA        18.7950   -2.3150   -3.6530 C.3   241  ALA241      0.1562
    105  C         19.3980   -3.4660   -4.4650 C.2   241  ALA241      0.2260
    106  O         19.1330   -4.6320   -4.1980 O.2   241  ALA241     -0.2867
    107  CB        17.4810   -2.7890   -3.0660 C.3   241  ALA241      0.0290
    108  N         17.8860  -14.2690    2.3480 N.3   253  LEU253     -0.1245
    109  CA        16.4310  -14.3230    2.2500 C.3   253  LEU253      0.1561
    110  C         16.0280  -14.9880    0.9350 C.2   253  LEU253      0.2260
    111  O         16.4400  -14.5620   -0.1660 O.2   253  LEU253     -0.2867
    112  CB        15.8500  -12.9090    2.2370 C.3   253  LEU253      0.0270
    113  CG        15.9180  -12.1150    3.5420 C.3   253  LEU253      0.0019
    114  CD1       15.4050  -10.7120    3.2630 C.3   253  LEU253      0.0001
    115  CD2       15.0970  -12.7630    4.6410 C.3   253  LEU253      0.0001
    116  N         14.7520  -12.7920   -1.9970 N.3   256  PHE256     -0.1241
    117  CA        15.6280  -11.6860   -2.3650 C.3   256  PHE256      0.1605
    118  C         16.7100  -12.2230   -3.3040 C.2   256  PHE256      0.2264
    119  O         17.4400  -13.1610   -2.9550 O.2   256  PHE256     -0.2867
    120  CB        16.2860  -11.1110   -1.0970 C.3   256  PHE256      0.0534
    121  CG        17.0530   -9.8300   -1.3510 C.ar  256  PHE256     -0.0203
    122  CD1       18.3200   -9.8700   -1.9060 C.ar  256  PHE256     -0.0042
    123  CD2       16.5160   -8.6050   -1.0430 C.ar  256  PHE256     -0.0042
    124  CE1       19.0280   -8.7160   -2.1950 C.ar  256  PHE256     -0.0003
    125  CE2       17.2310   -7.4480   -1.3200 C.ar  256  PHE256     -0.0003
    126  CZ        18.4830   -7.4940   -1.8830 C.ar  256  PHE256     -0.0000
    127  N          5.5300   -0.2030    0.5490 N.3   385  GLY385     -0.1210
    128  CA         6.8980    0.2120    0.3290 C.3   385  GLY385      0.1956
    129  C          7.1510    0.3690   -1.1630 C.2   385  GLY385      0.2612
    130  O          6.2300    0.7410   -1.9070 O.2   385  GLY385     -0.2717
    131  N          8.3860    0.1050   -1.5470 N.am  386  SER386     -0.1952
    132  CA         8.7270    0.2070   -2.9770 C.3   386  SER386      0.1924
    133  C          8.0940   -0.9730   -3.7120 C.2   386  SER386      0.2314
    134  O          7.7370   -2.0040   -3.1210 O.2   386  SER386     -0.2863
    135  CB        10.2420    0.1070   -3.1430 C.3   386  SER386      0.2116
    136  OG        10.6920   -1.2320   -2.8750 O.3   386  SER386     -0.2180
    137  N          6.1170    1.5030   10.9220 N.3   459  PHE459     -0.1241
    138  CA         6.4330    0.3050   10.1470 C.3   459  PHE459      0.1605
    139  C          6.3220   -0.9880   10.9150 C.2   459  PHE459      0.2264
    140  O          6.2150   -2.0810   10.3510 O.2   459  PHE459     -0.2867
    141  CB         7.8140    0.4340    9.5040 C.3   459  PHE459      0.0534
    142  CG         8.9680    0.1800   10.4420 C.ar  459  PHE459     -0.0203
    143  CD1        9.4380   -1.1140   10.6340 C.ar  459  PHE459     -0.0042
    144  CD2        9.6180    1.2240   11.0650 C.ar  459  PHE459     -0.0042
    145  CE1       10.5010   -1.3960   11.4640 C.ar  459  PHE459     -0.0003
    146  CE2       10.6870    0.9460   11.9050 C.ar  459  PHE459     -0.0003
    147  CZ        11.1250   -0.3320   12.0890 C.ar  459  PHE459     -0.0000
@<TRIPOS>BOND
     1   105   106    2
     2   105   104    1
     3   103   104    1
     4   133   134    2
     5   133   132    1
     6   104   107    1
     7    22    20   am
     8    21    20    2
     9   118   119    2
    10   118   117    1
    11     4     3    2
    12   135   132    1
    13   135   136    1
    14    20    19    1
    15   132   131    1
    16     3     2    1
    17   117   116    1
    18   117   120    1
    19   124   122   ar
    20   124   126   ar
    21   130   129    2
    22   122   121   ar
    23   126   125   ar
    24     1     2    1
    25    19    18    1
    26     2     5    1
    27   131   129   am
    28    64    62    1
    29   121   120    1
    30   121   123   ar
    31   125   123   ar
    32   129   128    1
    33    63    62    1
    34    62    59    1
    35    18    15    1
    36     5     6    1
    37   111   110    2
    38     7    13    1
    39     7     8    1
    40   128   127    1
    41    13    12    1
    42    68    67    2
    43    77    79   ar
    44    77    75   ar
    45    74    75    1
    46    74    71    1
    47     8     9    1
    48     8    11    1
    49    14    15    1
    50    14     9   am
    51    15    16    1
    52   110   109    1
    53    73    72    2
    54    59    58    1
    55    59    60    1
    56     9    10    2
    57    79    80   ar
    58    75    76   ar
    59    55    54    2
    60    58    54   am
    61    80    78   ar
    62    76    78   ar
    63    54    53    1
    64    72    71    1
    65    60    65   am
    66    60    61    2
    67    67    66    1
    68    71    70    1
    69    65    66    1
    70    12    11    1
    71    16    17    2
    72    16    23   am
    73    52    53    1
    74   112   109    1
    75   112   113    1
    76   109   108    1
    77    53    56    1
    78    66    69    1
    79    23    24    1
    80   114   113    1
    81   113   115    1
    82    47    49   ar
    83    47    46   ar
    84    49    51   ar
    85    97    98    2
    86    97    96    1
    87    56    57    1
    88    45    46    1
    89    45    42    1
    90    24    25    1
    91    24    27    1
    92    46    48   ar
    93    25    26    2
    94    51    50   ar
    95    42    43    1
    96    42    41    1
    97    96    95    1
    98    96    99    1
    99    43    44    2
   100    30    32   ar
   101    30    28   ar
   102    48    50   ar
   103    32    33   ar
   104    37    36    2
   105   101    99    1
   106    27    28    1
   107    28    29   ar
   108    33    31   ar
   109    99   100    1
   110    41    36   am
   111    36    35    1
   112    29    31   ar
   113    39    38    1
   114   102   100    1
   115    35    38    1
   116    35    34    1
   117    38    40    1
   118    92    94   ar
   119    92    90   ar
   120    89    90   ar
   121    89    87   ar
   122    94    93   ar
   123    90    88   ar
   124    87    86   ar
   125   141   138    1
   126   141   142    1
   127    93    91   ar
   128    88    86   ar
   129    88    91   ar
   130   138   139    1
   131   138   137    1
   132   140   139    2
   133    86    85    1
   134   142   143   ar
   135   142   144   ar
   136   143   145   ar
   137   144   146   ar
   138    84    83    2
   139   145   147   ar
   140    82    85    1
   141    82    83    1
   142    82    81    1
   143   146   147   ar
