@<TRIPOS>MOLECULE
tmp/1gmbA00.pdb
 191 188 0 0 0
SMALL
GASTEIGER

@<TRIPOS>ATOM
      1  N        -13.3640   62.4080    6.0230 N.3     1  ALA1       -0.1231
      2  CA       -13.0040   60.9630    5.9200 C.3     1  ALA1        0.1679
      3  C        -14.1590   60.3060    5.1610 C.2     1  ALA1        0.2434
      4  O        -15.1550   60.9820    4.8780 O.2     1  ALA1       -0.2733
      5  CB       -12.8850   60.3780    7.3220 C.3     1  ALA1        0.0304
      6  N        -14.0320   59.0170    4.7700 N.am    2  PRO2       -0.2718
      7  CA       -15.1640   58.4170    4.0520 C.3     2  PRO2        0.1535
      8  C        -16.4000   58.4030    4.9420 C.2     2  PRO2        0.2598
      9  O        -16.3090   58.6320    6.1580 O.2     2  PRO2       -0.2715
     10  CB       -14.6810   56.9880    3.7750 C.3     2  PRO2        0.0310
     11  CG       -13.7250   56.7180    4.8990 C.3     2  PRO2        0.0237
     12  CD       -12.9570   58.0270    4.9580 C.3     2  PRO2        0.0939
     13  N        -17.5640   58.2050    4.3450 N.am    3  ALA3       -0.1964
     14  CA       -18.7630   58.1370    5.1590 C.3     3  ALA3        0.1728
     15  C        -18.7040   56.8250    5.9640 C.2     3  ALA3        0.2616
     16  O        -18.2450   55.7850    5.4730 O.2     3  ALA3       -0.2715
     17  CB       -20.0130   58.1750    4.2790 C.3     3  ALA3        0.0334
     18  N        -19.1230   56.8830    7.2160 N.am    4  VAL4       -0.1964
     19  CA       -19.1320   55.6930    8.0570 C.3     4  VAL4        0.1712
     20  C        -20.2280   54.7410    7.4980 C.2     4  VAL4        0.2458
     21  O        -21.2590   55.2130    7.0130 O.2     4  VAL4       -0.2730
     22  CB       -19.4090   56.1320    9.5210 C.3     4  VAL4        0.0289
     23  CG1      -20.8050   56.7020    9.6640 C.3     4  VAL4        0.0023
     24  CG2      -19.1770   55.0070   10.4720 C.3     4  VAL4        0.0023
     25  N        -19.9750   53.4110    7.4470 N.am    5  PRO5       -0.2727
     26  CA       -20.9830   52.4640    6.9250 C.3     5  PRO5        0.1402
     27  C        -22.2980   52.5520    7.6980 C.2     5  PRO5        0.2269
     28  O        -22.2940   52.6160    8.9320 O.2     5  PRO5       -0.2865
     29  CB       -20.3140   51.1050    7.1360 C.3     5  PRO5        0.0296
     30  CG       -18.8770   51.4130    6.9670 C.3     5  PRO5        0.0237
     31  CD       -18.7240   52.7060    7.7600 C.3     5  PRO5        0.0939
     32  N        -21.2330   45.6710    8.9920 N.3     9  VAL9       -0.1231
     33  CA       -20.2170   45.1940    8.0570 C.3     9  VAL9        0.1692
     34  C        -19.5360   43.9330    8.5710 C.2     9  VAL9        0.2592
     35  O        -19.4290   43.7180    9.7810 O.2     9  VAL9       -0.2718
     36  CB       -19.1250   46.2590    7.7820 C.3     9  VAL9        0.0266
     37  CG1      -19.7050   47.4190    6.9970 C.3     9  VAL9        0.0020
     38  CG2      -18.4870   46.7310    9.0880 C.3     9  VAL9        0.0020
     39  N        -18.9510   43.2410    7.6950 N.am   10  GLU10      -0.1966
     40  CA       -18.3620   41.9380    8.0140 C.3    10  GLU10       0.1733
     41  C        -16.9220   42.0590    8.4880 C.2    10  GLU10       0.2616
     42  O        -16.0940   42.7220    7.8480 O.2    10  GLU10      -0.2715
     43  CB       -18.3030   41.0310    6.7770 C.3    10  GLU10       0.0429
     44  CG       -19.6150   40.3450    6.4290 C.3    10  GLU10       0.1163
     45  CD       -19.4260   39.2280    5.3970 C.2    10  GLU10       0.3649
     46  OE1      -18.8960   39.4920    4.2480 O.co2  10  GLU10      -0.2457
     47  OE2      -19.7930   38.0250    5.6740 O.co2  10  GLU10      -0.2457
     48  N        -16.6800   41.4160    9.5960 N.am   11  VAL11      -0.1963
     49  CA       -15.3490   41.3100   10.1780 C.3    11  VAL11       0.1727
     50  C        -15.0110   39.8340   10.0780 C.2    11  VAL11       0.2616
     51  O        -15.4000   39.0350   10.9340 O.2    11  VAL11      -0.2715
     52  CB       -15.3250   41.7870   11.6390 C.3    11  VAL11       0.0290
     53  CG1      -13.9130   41.7850   12.2390 C.3    11  VAL11       0.0023
     54  CG2      -15.8440   43.2140   11.8240 C.3    11  VAL11       0.0023
     55  N        -14.3070   39.5110    9.0170 N.am   12  LYS12      -0.1977
     56  CA       -13.9190   38.1270    8.7190 C.3    12  LYS12       0.1596
     57  C        -12.6780   37.7260    9.5170 C.2    12  LYS12       0.2287
     58  O        -11.5640   38.1890    9.2460 O.2    12  LYS12      -0.2864
     59  CB       -13.6250   37.9880    7.2280 C.3    12  LYS12       0.0298
     60  CG       -14.8740   38.1450    6.3510 C.3    12  LYS12       0.0038
     61  CD       -14.5830   37.9080    4.8690 C.3    12  LYS12       0.0206
     62  CE       -15.8340   37.9320    3.9910 C.3    12  LYS12       0.1093
     63  NZ       -15.5670   37.5010    2.6100 N.3    12  LYS12      -0.1314
     64  N        -20.0640   43.9120   12.3940 N.3    20  PHE20      -0.1241
     65  CA       -19.7890   45.0960   13.1910 C.3    20  PHE20       0.1605
     66  C        -20.7570   46.2140   12.8500 C.2    20  PHE20       0.2264
     67  O        -20.8330   46.6400   11.6900 O.2    20  PHE20      -0.2867
     68  CB       -18.3670   45.6180   12.9700 C.3    20  PHE20       0.0534
     69  CG       -18.0830   46.8780   13.7230 C.ar   20  PHE20      -0.0203
     70  CD1      -17.8660   46.8390   15.0910 C.ar   20  PHE20      -0.0042
     71  CD2      -18.1140   48.1120   13.0850 C.ar   20  PHE20      -0.0042
     72  CE1      -17.6860   48.0080   15.8190 C.ar   20  PHE20      -0.0003
     73  CE2      -17.9330   49.2900   13.8100 C.ar   20  PHE20      -0.0003
     74  CZ       -17.7230   49.2330   15.1780 C.ar   20  PHE20      -0.0000
     75  N        -21.7890   50.1130   13.1900 N.3    22  HIS22      -0.1241
     76  CA       -21.2600   51.4400   13.5290 C.3    22  HIS22       0.1621
     77  C        -22.1840   52.3440   14.3800 C.2    22  HIS22       0.2264
     78  O        -21.7090   53.0610   15.2500 O.2    22  HIS22      -0.2867
     79  CB       -20.8630   52.1970   12.2630 C.3    22  HIS22       0.0745
     80  CG       -19.5000   51.8540   11.7440 C.ar   22  HIS22       0.0817
     81  ND1      -19.2540   50.8690   10.8160 N.ar   22  HIS22      -0.2268
     82  CD2      -18.3010   52.4380   11.9900 C.ar   22  HIS22       0.1154
     83  CE1      -17.9490   50.8860   10.5230 C.ar   22  HIS22       0.1986
     84  NE2      -17.3230   51.8220   11.2070 N.ar   22  HIS22      -0.2212
     85  N        -21.7370   52.9950   18.0120 N.3    25  HIS25      -0.1226
     86  CA       -20.4350   53.5880   18.2910 C.3    25  HIS25       0.1752
     87  C        -20.3440   55.0020   17.7200 C.2    25  HIS25       0.2595
     88  O        -19.2540   55.5400   17.5810 O.2    25  HIS25      -0.2718
     89  CB       -19.3150   52.7240   17.6830 C.3    25  HIS25       0.0759
     90  CG       -19.3340   51.3030   18.1370 C.ar   25  HIS25       0.0818
     91  ND1      -20.0650   50.3070   17.5290 N.ar   25  HIS25      -0.2268
     92  CD2      -18.7160   50.7080   19.1880 C.ar   25  HIS25       0.1154
     93  CE1      -19.8770   49.1710   18.2080 C.ar   25  HIS25       0.1986
     94  NE2      -19.0670   49.3580   19.2280 N.ar   25  HIS25      -0.2212
     95  N        -21.4830   55.6220   17.4280 N.am   26  GLU26      -0.1979
     96  CA       -21.4620   56.9630   16.8440 C.3    26  GLU26       0.1602
     97  C        -20.7460   58.0080   17.6850 C.2    26  GLU26       0.2287
     98  O        -20.2580   59.0000   17.1590 O.2    26  GLU26      -0.2864
     99  CB       -22.8720   57.4460   16.5140 C.3    26  GLU26       0.0415
    100  CG       -23.7970   57.4500   17.7010 C.3    26  GLU26       0.1163
    101  CD       -25.1310   58.0860   17.3990 C.2    26  GLU26       0.3649
    102  OE1      -25.6920   57.8320   16.3060 O.co2  26  GLU26      -0.2457
    103  OE2      -25.6180   58.8410   18.2700 O.co2  26  GLU26      -0.2457
    104  N        -18.1030   57.2510   19.5820 N.3    28  VAL28      -0.1231
    105  CA       -16.6930   56.9030   19.7020 C.3    28  VAL28       0.1692
    106  C        -15.9560   57.5290   18.5040 C.2    28  VAL28       0.2592
    107  O        -16.4240   57.4420   17.3730 O.2    28  VAL28      -0.2718
    108  CB       -16.4680   55.3670   19.6810 C.3    28  VAL28       0.0266
    109  CG1      -15.0090   55.0550   19.8900 C.3    28  VAL28       0.0020
    110  CG2      -17.3150   54.6740   20.7320 C.3    28  VAL28       0.0020
    111  N        -14.8050   58.1540   18.7520 N.am   29  GLU29      -0.1966
    112  CA       -14.0110   58.7650   17.6820 C.3    29  GLU29       0.1733
    113  C        -13.5320   57.6930   16.7180 C.2    29  GLU29       0.2616
    114  O        -13.0370   56.6450   17.1450 O.2    29  GLU29      -0.2715
    115  CB       -12.7720   59.4480   18.2510 C.3    29  GLU29       0.0429
    116  CG       -13.0610   60.6400   19.1100 C.3    29  GLU29       0.1163
    117  CD       -11.8130   61.2890   19.6550 C.2    29  GLU29       0.3649
    118  OE1      -10.7320   60.6680   19.6350 O.co2  29  GLU29      -0.2457
    119  OE2      -11.9190   62.4410   20.1110 O.co2  29  GLU29      -0.2457
    120  N        -13.5810   57.9940   15.4260 N.am   30  CYS30      -0.1968
    121  CA       -13.1370   57.0510   14.4030 C.3    30  CYS30       0.1712
    122  C        -11.7480   56.5030   14.6880 C.2    30  CYS30       0.2296
    123  O        -11.5100   55.2950   14.5610 O.2    30  CYS30      -0.2864
    124  CB       -13.0960   57.7150   13.0300 C.3    30  CYS30       0.0983
    125  SG       -14.6020   58.5520   12.5480 S.3    30  CYS30      -0.0798
    126  N        -10.7190   53.2390   16.8020 N.3    33  CYS33      -0.1221
    127  CA       -10.6400   51.9420   16.1390 C.3    33  CYS33       0.1808
    128  C         -9.7730   52.0280   14.8890 C.2    33  CYS33       0.2601
    129  O         -8.8680   51.2210   14.6980 O.2    33  CYS33      -0.2717
    130  CB       -12.0350   51.4480   15.7990 C.3    33  CYS33       0.0970
    131  SG       -13.0850   51.3680   17.2440 S.3    33  CYS33      -0.0800
    132  N        -10.0590   53.0020   14.0320 N.am   34  HIS34      -0.1975
    133  CA        -9.2660   53.2210   12.8270 C.3    34  HIS34       0.1656
    134  C         -8.1040   54.1100   13.2520 C.2    34  HIS34       0.2291
    135  O         -8.0240   55.2910   12.9050 O.2    34  HIS34      -0.2864
    136  CB       -10.1030   53.9010   11.7440 C.3    34  HIS34       0.0771
    137  CG       -11.3150   53.1200   11.3610 C.ar   34  HIS34       0.0820
    138  ND1      -11.2800   51.9590   10.6200 N.ar   34  HIS34      -0.2267
    139  CD2      -12.6170   53.3160   11.6800 C.ar   34  HIS34       0.1154
    140  CE1      -12.5260   51.4920   10.5170 C.ar   34  HIS34       0.1986
    141  NE2      -13.3770   52.2790   11.1460 N.ar   34  HIS34      -0.2212
    142  N         -8.5350   53.8940    7.0420 N.3    43  TYR43      -0.1227
    143  CA        -9.8240   53.2840    7.3000 C.3    43  TYR43       0.1736
    144  C         -9.8490   51.9100    6.6300 C.2    43  TYR43       0.2595
    145  O        -10.9090   51.3430    6.3910 O.2    43  TYR43      -0.2718
    146  CB       -10.9270   54.1780    6.7310 C.3    43  TYR43       0.0548
    147  CG       -11.0700   55.4800    7.4760 C.ar   43  TYR43      -0.0200
    148  CD1      -10.3800   56.6270    7.0710 C.ar   43  TYR43      -0.0009
    149  CD2      -11.8520   55.5520    8.6260 C.ar   43  TYR43      -0.0009
    150  CE1      -10.4770   57.8220    7.8090 C.ar   43  TYR43       0.0417
    151  CE2      -11.9570   56.7250    9.3620 C.ar   43  TYR43       0.0417
    152  CZ       -11.2660   57.8530    8.9590 C.ar   43  TYR43       0.1957
    153  OH       -11.3680   58.9960    9.7230 O.3    43  TYR43      -0.2866
    154  N         -8.6690   51.3780    6.3350 N.am   44  ALA44      -0.1966
    155  CA        -8.5540   50.0790    5.6820 C.3    44  ALA44       0.1728
    156  C         -9.0460   48.9920    6.6300 C.2    44  ALA44       0.2616
    157  O         -9.0930   49.1990    7.8400 O.2    44  ALA44      -0.2715
    158  CB        -7.0990   49.8260    5.2860 C.3    44  ALA44       0.0334
    159  N         -9.4110   47.8400    6.0780 N.am   45  LYS45      -0.1963
    160  CA        -9.8850   46.7190    6.8870 C.3    45  LYS45       0.1728
    161  C         -8.8220   46.3050    7.8900 C.2    45  LYS45       0.2616
    162  O         -7.6430   46.2300    7.5560 O.2    45  LYS45      -0.2715
    163  CB       -10.2610   45.5350    5.9920 C.3    45  LYS45       0.0311
    164  CG       -11.5570   45.7560    5.2470 C.3    45  LYS45       0.0038
    165  CD       -11.9010   44.6210    4.2940 C.3    45  LYS45       0.0206
    166  CE       -13.3160   44.7930    3.7490 C.3    45  LYS45       0.1093
    167  NZ       -13.3910   44.4190    2.3180 N.3    45  LYS45      -0.1314
    168  N         -9.2370   46.0240    9.1180 N.am   46  CYS46      -0.1954
    169  CA        -8.2930   45.6230   10.1550 C.3    46  CYS46       0.1843
    170  C         -7.4000   44.4620    9.7150 C.2    46  CYS46       0.2626
    171  O         -6.1900   44.4930    9.9480 O.2    46  CYS46      -0.2714
    172  CB        -9.0340   45.2310   11.4270 C.3    46  CYS46       0.0997
    173  SG       -10.3060   46.3930   11.9090 S.3    46  CYS46      -0.0797
    174  N         -7.9880   43.4550    9.0670 N.am   47  GLY47      -0.1954
    175  CA        -7.2150   42.3040    8.6200 C.3    47  GLY47       0.1869
    176  C         -6.5190   42.4530    7.2760 C.2    47  GLY47       0.2309
    177  O         -6.2180   41.4560    6.6210 O.2    47  GLY47      -0.2863
    178  N         -5.4770   39.2350   14.3130 N.3    64  LEU64      -0.1245
    179  CA        -6.7370   39.9660   14.3050 C.3    64  LEU64       0.1561
    180  C         -7.5220   39.5720   15.5500 C.2    64  LEU64       0.2260
    181  O         -8.1530   40.4040   16.1950 O.2    64  LEU64      -0.2867
    182  CB        -7.5520   39.6540   13.0430 C.3    64  LEU64       0.0270
    183  CG        -8.8820   40.4100   12.8640 C.3    64  LEU64       0.0019
    184  CD1       -8.6200   41.8970   12.9040 C.3    64  LEU64       0.0001
    185  CD2       -9.5450   40.0320   11.5550 C.3    64  LEU64       0.0001
    186  N        -11.9730   45.6530   21.0380 N.3    79  CYS79      -0.1235
    187  CA       -13.4130   45.5540   21.2600 C.3    79  CYS79       0.1677
    188  C        -13.6990   45.1550   22.7150 C.2    79  CYS79       0.2270
    189  O        -14.4690   45.8090   23.4140 O.2    79  CYS79      -0.2867
    190  CB       -14.0140   44.5000   20.3300 C.3    79  CYS79       0.0956
    191  SG       -13.5460   44.6180   18.5790 S.3    79  CYS79      -0.0801
@<TRIPOS>BOND
     1   167   166    1
     2    63    62    1
     3   166   165    1
     4    10     7    1
     5    10    11    1
     6    62    61    1
     7     7     6    1
     8     7     8    1
     9    46    45   ar
    10    17    14    1
    11   165   164    1
    12    13     8   am
    13    13    14    1
    14     6    12    1
    15     6     3   am
    16    61    60    1
    17     4     3    2
    18    11    12    1
    19     8     9    2
    20    14    15    1
    21     3     2    1
    22   164   163    1
    23   158   155    1
    24    45    47   ar
    25    45    44    1
    26    16    15    2
    27   155   154    1
    28   155   156    1
    29     2     1    1
    30     2     5    1
    31    15    18   am
    32   163   160    1
    33   159   156   am
    34   159   160    1
    35   154   144   am
    36    60    59    1
    37   145   144    2
    38    44    43    1
    39   177   176    2
    40   156   157    2
    41   144   143    1
    42   146   143    1
    43   146   147    1
    44    43    40    1
    45   160   161    1
    46    26    29    1
    47    26    25    1
    48    26    27    1
    49    30    29    1
    50    30    31    1
    51    37    36    1
    52    21    20    2
    53   142   143    1
    54   148   147   ar
    55   148   150   ar
    56    18    19    1
    57    59    56    1
    58   176   175    1
    59    25    20   am
    60    25    31    1
    61   147   149   ar
    62    20    19    1
    63   162   161    2
    64    39    40    1
    65    39    34   am
    66    27    28    2
    67    36    33    1
    68    36    38    1
    69   150   152   ar
    70    42    41    2
    71   161   168   am
    72    40    41    1
    73    33    34    1
    74    33    32    1
    75    19    22    1
    76    41    48   am
    77    34    35    2
    78   175   174    1
    79   149   151   ar
    80    56    55    1
    81    56    57    1
    82   152   151   ar
    83   152   153    1
    84    55    50   am
    85   174   170   am
    86   168   169    1
    87    58    57    2
    88    22    23    1
    89    22    24    1
    90    48    49    1
    91   170   171    2
    92   170   169    1
    93    50    49    1
    94    50    51    2
    95   169   172    1
    96    49    52    1
    97   140   138   ar
    98   140   141   ar
    99    83    81   ar
   100    83    84   ar
   101   138   137   ar
   102    81    80   ar
   103   141   139   ar
   104    84    82   ar
   105   137   139   ar
   106   137   136    1
   107   172   173    1
   108   185   183    1
   109    52    54    1
   110    52    53    1
   111    67    66    2
   112   136   133    1
   113    80    82   ar
   114    80    79    1
   115    79    76    1
   116    64    65    1
   117   125   124    1
   118   133   134    1
   119   133   132    1
   120    66    65    1
   121   183   184    1
   122   183   182    1
   123   135   134    2
   124    68    65    1
   125    68    69    1
   126   124   121    1
   127   182   179    1
   128    71    69   ar
   129    71    73   ar
   130    75    76    1
   131    76    77    1
   132    69    70   ar
   133    73    74   ar
   134   132   128   am
   135   179   178    1
   136   179   180    1
   137    77    78    2
   138   121   122    1
   139   121   120    1
   140   123   122    2
   141   129   128    2
   142   128   127    1
   143    70    72   ar
   144    74    72   ar
   145   120   113   am
   146   180   181    2
   147   130   127    1
   148   130   131    1
   149   127   126    1
   150   102   101   ar
   151    99    96    1
   152    99   100    1
   153   113   114    2
   154   113   112    1
   155    96    95    1
   156    96    97    1
   157    98    97    2
   158   107   106    2
   159   101   100    1
   160   101   103   ar
   161    95    87   am
   162    91    90   ar
   163    91    93   ar
   164    88    87    2
   165   112   115    1
   166   112   111    1
   167    89    90    1
   168    89    86    1
   169    87    86    1
   170    85    86    1
   171    90    92   ar
   172    93    94   ar
   173   115   116    1
   174   106   111   am
   175   106   105    1
   176   191   190    1
   177   116   117    1
   178    92    94   ar
   179   104   105    1
   180   118   117   ar
   181   117   119   ar
   182   108   105    1
   183   108   109    1
   184   108   110    1
   185   190   187    1
   186   186   187    1
   187   187   188    1
   188   188   189    2
