@<TRIPOS>MOLECULE
tmp/1gmdC01.pdb
 131 130 0 0 0
SMALL
GASTEIGER

@<TRIPOS>ATOM
      1  N         45.8630   70.9180   99.2100 N.3    22  TRP22      -0.1241
      2  CA        45.3250   69.9460   98.2690 C.3    22  TRP22       0.1605
      3  C         45.9070   68.5260   98.2010 C.2    22  TRP22       0.2264
      4  O         45.4370   67.7070   97.3930 O.2    22  TRP22      -0.2867
      5  CB        45.3180   70.5770   96.8670 C.3    22  TRP22       0.0550
      6  CG        44.4710   71.8070   96.7750 C.ar   22  TRP22       0.0003
      7  CD1       44.8940   73.0870   96.5600 C.ar   22  TRP22       0.0946
      8  CD2       43.0450   71.8720   96.8960 C.ar   22  TRP22       0.0152
      9  NE1       43.8220   73.9510   96.5340 N.ar   22  TRP22      -0.2442
     10  CE2       42.6730   73.2330   96.7370 C.ar   22  TRP22       0.0810
     11  CE3       42.0390   70.9110   97.1230 C.ar   22  TRP22       0.0012
     12  CZ2       41.3430   73.6560   96.7950 C.ar   22  TRP22       0.0191
     13  CZ3       40.7050   71.3300   97.1840 C.ar   22  TRP22       0.0001
     14  CH2       40.3740   72.6960   97.0170 C.ar   22  TRP22       0.0015
     15  N         46.3030   65.7440   94.8360 N.3    25  LYS25      -0.1245
     16  CA        45.6420   66.1520   93.6090 C.3    25  LYS25       0.1561
     17  C         46.5490   67.0970   92.7980 C.2    25  LYS25       0.2260
     18  O         46.4100   67.2130   91.5770 O.2    25  LYS25      -0.2867
     19  CB        44.3170   66.8140   93.9210 C.3    25  LYS25       0.0271
     20  CG        43.4170   66.0010   94.8180 C.3    25  LYS25       0.0035
     21  CD        42.2030   66.7980   95.3080 C.3    25  LYS25       0.0206
     22  CE        41.0630   66.9050   94.2640 C.3    25  LYS25       0.1093
     23  NZ        41.3800   67.7580   93.0560 N.3    25  LYS25      -0.1314
     24  N         40.2280   85.0330   95.0400 N.3    39  SER39      -0.1202
     25  CA        40.1410   83.6870   94.4550 C.3    39  SER39       0.2020
     26  C         39.4170   83.5750   93.1100 C.2    39  SER39       0.2619
     27  O         38.3490   84.1590   92.9270 O.2    39  SER39      -0.2717
     28  CB        39.4770   82.7150   95.4480 C.3    39  SER39       0.2103
     29  OG        39.1380   81.4800   94.8260 O.3    39  SER39      -0.2182
     30  N         39.9880   82.8280   92.1650 N.am   40  SER40      -0.1937
     31  CA        39.3220   82.6170   90.8690 C.3    40  SER40       0.2055
     32  C         38.0760   81.7830   91.2050 C.2    40  SER40       0.2643
     33  O         38.0250   81.1350   92.2560 O.2    40  SER40      -0.2714
     34  CB        40.2090   81.8610   89.8860 C.3    40  SER40       0.2130
     35  OG        41.2840   82.6440   89.4270 O.3    40  SER40      -0.2179
     36  N         37.0880   81.7670   90.3220 N.am   41  CYS41      -0.1953
     37  CA        35.8510   81.0510   90.6260 C.3    41  CYS41       0.1843
     38  C         35.1960   80.4920   89.3530 C.2    41  CYS41       0.2625
     39  O         35.7340   80.6230   88.2350 O.2    41  CYS41      -0.2714
     40  CB        34.9170   82.0200   91.3820 C.3    41  CYS41       0.0997
     41  SG        33.5430   81.3120   92.3630 S.3    41  CYS41      -0.0797
     42  N         34.0510   79.8400   89.5090 N.am   42  MET42      -0.1963
     43  CA        33.3690   79.2650   88.3490 C.3    42  MET42       0.1736
     44  C         33.0850   80.3150   87.2750 C.2    42  MET42       0.2617
     45  O         32.5050   81.3710   87.5620 O.2    42  MET42      -0.2715
     46  CB        32.0850   78.5570   88.7860 C.3    42  MET42       0.0427
     47  CG        32.3100   77.3560   89.6880 C.3    42  MET42       0.0599
     48  SD        32.4340   77.7480   91.4720 S.3    42  MET42      -0.1393
     49  CE        33.8070   76.7840   91.9080 C.3    42  MET42       0.0692
     50  N         33.4590   80.0050   86.0370 N.am   43  GLY43      -0.1955
     51  CA        33.2690   80.9310   84.9430 C.3    43  GLY43       0.1869
     52  C         34.6100   81.4650   84.4720 C.2    43  GLY43       0.2309
     53  O         34.7470   81.8870   83.3060 O.2    43  GLY43      -0.2863
     54  N         37.4830   79.6580   84.5600 N.3    45  SER45      -0.1217
     55  CA        38.1630   78.5330   83.9170 C.3    45  SER45       0.1889
     56  C         38.5860   78.8170   82.4820 C.2    45  SER45       0.2288
     57  O         37.8150   79.3710   81.6980 O.2    45  SER45      -0.2866
     58  CB        37.2600   77.3070   83.9200 C.3    45  SER45       0.2089
     59  OG        37.2610   76.7180   85.2160 O.3    45  SER45      -0.2183
     60  N         43.4510   79.1060   84.2890 N.3    63  VAL63      -0.1231
     61  CA        42.4570   78.8510   85.3430 C.3    63  VAL63       0.1692
     62  C         41.8800   77.4290   85.1850 C.2    63  VAL63       0.2593
     63  O         41.2930   77.0780   84.1420 O.2    63  VAL63      -0.2718
     64  CB        41.3280   79.8900   85.3100 C.3    63  VAL63       0.0266
     65  CG1       40.3620   79.6520   86.4630 C.3    63  VAL63       0.0020
     66  CG2       41.9210   81.3010   85.3700 C.3    63  VAL63       0.0020
     67  N         42.0340   76.6270   86.2310 N.am   64  SER64      -0.1938
     68  CA        41.6030   75.2520   86.1790 C.3    64  SER64       0.2055
     69  C         40.5820   74.8050   87.2330 C.2    64  SER64       0.2643
     70  O         39.3990   74.5890   86.8910 O.2    64  SER64      -0.2714
     71  CB        42.8370   74.3520   86.1970 C.3    64  SER64       0.2130
     72  OG        42.4960   73.0160   85.9080 O.3    64  SER64      -0.2179
     73  N         41.0130   74.6360   88.4800 N.am   65  TRP65      -0.1959
     74  CA        40.0950   74.1940   89.5240 C.3    65  TRP65       0.1771
     75  C         40.4780   74.7470   90.8820 C.2    65  TRP65       0.2620
     76  O         41.4210   75.5190   90.9940 O.2    65  TRP65      -0.2715
     77  CB        40.0260   72.6490   89.5490 C.3    65  TRP65       0.0590
     78  CG        41.3470   71.9320   89.8240 C.ar   65  TRP65       0.0006
     79  CD1       42.2990   71.5430   88.9020 C.ar   65  TRP65       0.0946
     80  CD2       41.8240   71.4760   91.1000 C.ar   65  TRP65       0.0152
     81  NE1       43.3260   70.8730   89.5280 N.ar   65  TRP65      -0.2442
     82  CE2       43.0590   70.8140   90.8730 C.ar   65  TRP65       0.0810
     83  CE3       41.3270   71.5580   92.4090 C.ar   65  TRP65       0.0012
     84  CZ2       43.7980   70.2350   91.9140 C.ar   65  TRP65       0.0191
     85  CZ3       42.0640   70.9840   93.4360 C.ar   65  TRP65       0.0001
     86  CH2       43.2820   70.3310   93.1830 C.ar   65  TRP65       0.0015
     87  N         39.7460   74.3710   91.9160 N.am   66  GLY66      -0.1940
     88  CA        40.0650   74.8590   93.2410 C.3    66  GLY66       0.2014
     89  C         38.9060   74.6250   94.1690 C.2    66  GLY66       0.2640
     90  O         38.0870   73.7380   93.9040 O.2    66  GLY66      -0.2714
     91  N         38.8100   75.4380   95.2220 N.am   67  SER67      -0.1935
     92  CA        37.7230   75.3400   96.2110 C.3    67  SER67       0.2055
     93  C         36.3510   75.4290   95.5420 C.2    67  SER67       0.2643
     94  O         36.1430   76.2850   94.6900 O.2    67  SER67      -0.2714
     95  CB        37.8470   76.4610   97.2440 C.3    67  SER67       0.2130
     96  OG        36.8030   76.3840   98.2000 O.3    67  SER67      -0.2179
     97  N         35.4070   74.5790   95.9510 N.am   68  SER68      -0.1949
     98  CA        34.0620   74.5820   95.3610 C.3    68  SER68       0.1924
     99  C         33.2200   75.8340   95.6660 C.2    68  SER68       0.2314
    100  O         32.2220   76.0910   94.9900 O.2    68  SER68      -0.2863
    101  CB        33.2840   73.3180   95.7530 C.3    68  SER68       0.2116
    102  OG        33.0910   73.2090   97.1610 O.3    68  SER68      -0.2180
    103  N         34.9260   78.7430   96.1000 N.3    70  CYS70      -0.1235
    104  CA        35.8960   79.7840   95.7790 C.3    70  CYS70       0.1677
    105  C         36.3750   80.5820   97.0020 C.2    70  CYS70       0.2270
    106  O         36.4220   81.8100   96.9720 O.2    70  CYS70      -0.2867
    107  CB        35.2930   80.7060   94.7320 C.3    70  CYS70       0.0956
    108  SG        34.3720   79.7940   93.4360 S.3    70  CYS70      -0.0801
    109  N         43.8740   78.6040   94.4270 N.3    76  GLY76      -0.1210
    110  CA        43.2630   78.1120   93.1990 C.3    76  GLY76       0.1956
    111  C         44.3080   77.3290   92.4050 C.2    76  GLY76       0.2612
    112  O         45.5030   77.5680   92.5460 O.2    76  GLY76      -0.2717
    113  N         43.8840   76.3670   91.6000 N.am   77  VAL77      -0.1965
    114  CA        44.8410   75.5790   90.8320 C.3    77  VAL77       0.1727
    115  C         44.7480   75.9100   89.3560 C.2    77  VAL77       0.2616
    116  O         43.6690   75.8940   88.7770 O.2    77  VAL77      -0.2715
    117  CB        44.6500   74.0600   91.0540 C.3    77  VAL77       0.0290
    118  CG1       45.6510   73.2750   90.2240 C.3    77  VAL77       0.0023
    119  CG2       44.8050   73.7370   92.5330 C.3    77  VAL77       0.0023
    120  N         45.8970   76.2300   88.7720 N.am   78  TYR78      -0.1974
    121  CA        46.0310   76.5950   87.3630 C.3    78  TYR78       0.1639
    122  C         46.9260   75.5940   86.6430 C.2    78  TYR78       0.2290
    123  O         47.7470   74.9350   87.2720 O.2    78  TYR78      -0.2864
    124  CB        46.6830   77.9730   87.2480 C.3    78  TYR78       0.0560
    125  CG        45.9900   79.0430   88.0430 C.ar   78  TYR78      -0.0198
    126  CD1       46.0370   79.0350   89.4380 C.ar   78  TYR78      -0.0009
    127  CD2       45.2730   80.0550   87.4080 C.ar   78  TYR78      -0.0009
    128  CE1       45.3850   79.9960   90.1790 C.ar   78  TYR78       0.0417
    129  CE2       44.6060   81.0240   88.1410 C.ar   78  TYR78       0.0417
    130  CZ        44.6690   80.9900   89.5300 C.ar   78  TYR78       0.1957
    131  OH        43.9790   81.8950   90.2890 O.3    78  TYR78      -0.2866
@<TRIPOS>BOND
     1    57    56    2
     2    56    55    1
     3    53    52    2
     4    55    58    1
     5    55    54    1
     6    58    59    1
     7    63    62    2
     8    60    61    1
     9    52    51    1
    10    51    50    1
    11    62    61    1
    12    62    67   am
    13    64    61    1
    14    64    66    1
    15    64    65    1
    16    72    71    1
    17    50    44   am
    18    68    71    1
    19    68    67    1
    20    68    69    1
    21   122   123    2
    22   122   121    1
    23    70    69    2
    24    69    73   am
    25   124   121    1
    26   124   125    1
    27    44    45    2
    28    44    43    1
    29   121   120    1
    30   127   125   ar
    31   127   129   ar
    32   125   126   ar
    33   129   130   ar
    34    39    38    2
    35    43    46    1
    36    43    42    1
    37    73    74    1
    38   120   115   am
    39   116   115    2
    40    46    47    1
    41    79    81   ar
    42    79    78   ar
    43    38    42   am
    44    38    37    1
    45   115   114    1
    46    35    34    1
    47   126   128   ar
    48    74    77    1
    49    74    75    1
    50    81    82   ar
    51   130   128   ar
    52   130   131    1
    53    77    78    1
    54    47    48    1
    55    78    80   ar
    56    34    31    1
    57   118   117    1
    58    36    37    1
    59    36    32   am
    60    37    40    1
    61   114   117    1
    62   114   113    1
    63    31    32    1
    64    31    30    1
    65    82    80   ar
    66    82    84   ar
    67    75    76    2
    68    75    87   am
    69   117   119    1
    70    80    83   ar
    71    32    33    2
    72    40    41    1
    73    48    49    1
    74    18    17    2
    75   113   111   am
    76    84    86   ar
    77    87    88    1
    78    30    26   am
    79    41   108    1
    80   111   112    2
    81   111   110    1
    82    83    85   ar
    83    17    16    1
    84    27    26    2
    85    23    22    1
    86    26    25    1
    87    86    85   ar
    88   110   109    1
    89    88    89    1
    90   108   107    1
    91    16    19    1
    92    16    15    1
    93    90    89    2
    94    19    20    1
    95    89    91   am
    96    22    21    1
    97    25    24    1
    98    25    28    1
    99    94    93    2
   100   107   104    1
   101    20    21    1
   102    29    28    1
   103   100    99    2
   104    91    92    1
   105    98    99    1
   106    98   101    1
   107    98    97    1
   108    93    97   am
   109    93    92    1
   110   101   102    1
   111   104   103    1
   112   104   105    1
   113    92    95    1
   114     9     7   ar
   115     9    10   ar
   116     7     6   ar
   117    10    12   ar
   118    10     8   ar
   119     6     5    1
   120     6     8   ar
   121    12    14   ar
   122     5     2    1
   123     8    11   ar
   124   106   105    2
   125    14    13   ar
   126    11    13   ar
   127    95    96    1
   128     4     3    2
   129     3     2    1
   130     2     1    1
