@<TRIPOS>MOLECULE
tmp/1gmhC00.pdb
 80 78 0 0 0
SMALL
GASTEIGER

@<TRIPOS>ATOM
      1  N         21.6680    5.3100   42.6530 N.3    41  SER41      -0.1202
      2  CA        21.8450    4.6900   41.3150 C.3    41  SER41       0.2020
      3  C         22.5880    3.3860   41.6450 C.2    41  SER41       0.2619
      4  O         23.2540    3.3090   42.7200 O.2    41  SER41      -0.2717
      5  CB        22.6280    5.5500   40.3490 C.3    41  SER41       0.2103
      6  OG        21.9790    6.7720   40.1310 O.3    41  SER41      -0.2182
      7  N         22.4490    2.4000   40.8070 N.am   42  CYS42      -0.1955
      8  CA        23.1180    1.0910   41.1330 C.3    42  CYS42       0.1843
      9  C         23.6290    0.4590   39.8500 C.2    42  CYS42       0.2625
     10  O         23.4650    1.0900   38.7760 O.2    42  CYS42      -0.2714
     11  CB        22.2400    0.3020   42.0250 C.3    42  CYS42       0.0997
     12  SG        22.9880   -1.0560   42.9720 S.3    42  CYS42      -0.0797
     13  N         24.2910   -0.6720   39.9940 N.am   43  MET43      -0.1963
     14  CA        24.8850   -1.4090   38.8870 C.3    43  MET43       0.1736
     15  C         23.8190   -1.6110   37.7890 C.2    43  MET43       0.2617
     16  O         22.7460   -2.1690   38.0370 O.2    43  MET43      -0.2715
     17  CB        25.5230   -2.7290   39.2610 C.3    43  MET43       0.0427
     18  CG        26.8810   -2.5780   39.8960 C.3    43  MET43       0.0599
     19  SD        26.5950   -2.3530   41.6800 S.3    43  MET43      -0.1393
     20  CE        25.6140   -3.8240   42.0150 C.3    43  MET43       0.0692
     21  N         24.1930   -1.1080   36.6250 N.am   44  GLY44      -0.1955
     22  CA        23.3110   -1.2180   35.4410 C.3    44  GLY44       0.1869
     23  C         22.6690    0.1180   35.0760 C.2    44  GLY44       0.2309
     24  O         22.1320    0.2710   33.9760 O.2    44  GLY44      -0.2863
     25  N         24.3950    3.0220   35.0490 N.3    46  SER46      -0.1217
     26  CA        25.4370    3.8030   34.4010 C.3    46  SER46       0.1889
     27  C         25.1250    4.1600   32.9450 C.2    46  SER46       0.2288
     28  O         24.5530    3.3920   32.1790 O.2    46  SER46      -0.2866
     29  CB        26.8050    3.0710   34.4510 C.3    46  SER46       0.2089
     30  OG        27.3210    3.0630   35.7490 O.3    46  SER46      -0.2183
     31  N         24.9700    9.0510   34.9040 N.3    64  VAL64      -0.1231
     32  CA        25.3020    8.0560   35.9820 C.3    64  VAL64       0.1692
     33  C         26.7040    7.5280   35.7250 C.2    64  VAL64       0.2593
     34  O         26.9410    6.8420   34.7130 O.2    64  VAL64      -0.2718
     35  CB        24.2010    6.9900   36.0460 C.3    64  VAL64       0.0266
     36  CG1       24.3890    6.0840   37.2550 C.3    64  VAL64       0.0020
     37  CG2       22.7960    7.5840   36.0110 C.3    64  VAL64       0.0020
     38  N         27.6210    7.8600   36.6450 N.am   65  SER65      -0.1938
     39  CA        29.0230    7.4540   36.5140 C.3    65  SER65       0.2055
     40  C         29.5320    6.4570   37.5250 C.2    65  SER65       0.2643
     41  O         29.8840    5.2940   37.1520 O.2    65  SER65      -0.2714
     42  CB        29.9060    8.7180   36.4940 C.3    65  SER65       0.2130
     43  OG        31.2390    8.3840   36.1000 O.3    65  SER65      -0.2179
     44  N         29.5930    6.8250   38.7870 N.am   66  TRP66      -0.1959
     45  CA        30.1200    5.8750   39.8150 C.3    66  TRP66       0.1771
     46  C         29.5260    6.2250   41.1650 C.2    66  TRP66       0.2620
     47  O         28.8530    7.2710   41.2980 O.2    66  TRP66      -0.2715
     48  CB        31.6530    5.9150   39.7840 C.3    66  TRP66       0.0590
     49  CG        32.2860    7.1680   40.1690 C.ar   66  TRP66       0.0006
     50  CD1       32.4960    8.2980   39.3000 C.ar   66  TRP66       0.0946
     51  CD2       32.7940    7.6260   41.4460 C.ar   66  TRP66       0.0152
     52  NE1       33.0900    9.2690   39.9590 N.ar   66  TRP66      -0.2442
     53  CE2       33.2970    8.9030   41.2890 C.ar   66  TRP66       0.0810
     54  CE3       32.8920    7.0090   42.6820 C.ar   66  TRP66       0.0012
     55  CZ2       33.8930    9.6220   42.3270 C.ar   66  TRP66       0.0191
     56  CZ3       33.4600    7.6420   43.7410 C.ar   66  TRP66       0.0001
     57  CH2       33.9670    9.0430   43.5500 C.ar   66  TRP66       0.0015
     58  N         29.7420    5.3530   42.1520 N.am   67  GLY67      -0.1940
     59  CA        29.1860    5.6620   43.5260 C.3    67  GLY67       0.2014
     60  C         29.6590    4.4780   44.4410 C.2    67  GLY67       0.2639
     61  O         30.6180    3.7810   44.0880 O.2    67  GLY67      -0.2714
     62  N         28.9200    4.3340   45.5040 N.am   68  SER68      -0.1949
     63  CA        29.1160    3.3120   46.5340 C.3    68  SER68       0.1924
     64  C         29.1320    1.9170   45.9390 C.2    68  SER68       0.2314
     65  O         28.2700    1.5600   45.1060 O.2    68  SER68      -0.2863
     66  CB        27.9840    3.4260   47.5670 C.3    68  SER68       0.2116
     67  OG        27.8660    2.2160   48.3060 O.3    68  SER68      -0.2180
     68  N         25.8080    0.5240   46.6840 N.3    71  CYS71      -0.1235
     69  CA        24.6070    1.3250   46.3240 C.3    71  CYS71       0.1677
     70  C         23.8940    1.8220   47.5650 C.2    71  CYS71       0.2270
     71  O         22.6360    1.7840   47.6310 O.2    71  CYS71      -0.2867
     72  CB        23.7010    0.4620   45.4430 C.3    71  CYS71       0.0956
     73  SG        24.5610   -0.1350   43.9370 S.3    71  CYS71      -0.0801
     74  N         27.7480    9.7110   42.0310 N.3    78  VAL78      -0.1245
     75  CA        28.6020   10.6530   41.2580 C.3    78  VAL78       0.1561
     76  C         28.1690   10.5540   39.7770 C.2    78  VAL78       0.2260
     77  O         28.0030    9.4340   39.2840 O.2    78  VAL78      -0.2867
     78  CB        30.0990   10.4430   41.4360 C.3    78  VAL78       0.0252
     79  CG1       30.8800   11.6100   40.7870 C.3    78  VAL78       0.0019
     80  CG2       30.4820   10.3150   42.9070 C.3    78  VAL78       0.0019
@<TRIPOS>BOND
     1    28    27    2
     2    27    26    1
     3    24    23    2
     4    26    29    1
     5    26    25    1
     6    29    30    1
     7    34    33    2
     8    31    32    1
     9    23    22    1
    10    22    21    1
    11    33    32    1
    12    33    38   am
    13    32    35    1
    14    37    35    1
    15    35    36    1
    16    43    42    1
    17    42    39    1
    18    39    38    1
    19    39    40    1
    20    21    15   am
    21    41    40    2
    22    40    44   am
    23    15    16    2
    24    15    14    1
    25    10     9    2
    26    44    45    1
    27    14    17    1
    28    14    13    1
    29    17    18    1
    30    77    76    2
    31    50    52   ar
    32    50    49   ar
    33    76    75    1
    34    48    45    1
    35    48    49    1
    36    45    46    1
    37     9    13   am
    38     9     8    1
    39    18    19    1
    40    52    53   ar
    41     6     5    1
    42    49    51   ar
    43     5     2    1
    44    79    78    1
    45     7     8    1
    46     7     3   am
    47     8    11    1
    48    46    47    2
    49    46    58   am
    50    75    78    1
    51    75    74    1
    52    53    51   ar
    53    53    55   ar
    54     2     3    1
    55     2     1    1
    56    78    80    1
    57    51    54   ar
    58     3     4    2
    59    19    20    1
    60    11    12    1
    61    58    59    1
    62    55    57   ar
    63    54    56   ar
    64    12    73    1
    65    59    60    1
    66    57    56   ar
    67    73    72    1
    68    61    60    2
    69    60    62   am
    70    65    64    2
    71    72    69    1
    72    62    63    1
    73    64    63    1
    74    69    68    1
    75    69    70    1
    76    63    66    1
    77    70    71    2
    78    66    67    1
