@<TRIPOS>MOLECULE
tmp/1gmnA00.pdb
 125 120 0 0 0
SMALL
GASTEIGER

@<TRIPOS>ATOM
      1  N        142.0750   23.9650   81.2130 N.3    21  LYS21      -0.1231
      2  CA       142.3450   22.6990   81.8840 C.3    21  LYS21       0.1693
      3  C        142.6820   21.6940   80.7900 C.2    21  LYS21       0.2592
      4  O        141.9460   21.5540   79.8110 O.2    21  LYS21      -0.2718
      5  CB       141.1230   22.1960   82.6610 C.3    21  LYS21       0.0285
      6  CG       141.3390   20.8070   83.2630 C.3    21  LYS21       0.0035
      7  CD       140.0540   20.1960   83.7940 C.3    21  LYS21       0.0206
      8  CE       140.2880   18.7710   84.2800 C.3    21  LYS21       0.1093
      9  NZ       139.0220   18.0820   84.6670 N.3    21  LYS21      -0.1314
     10  N        143.7970   20.9990   80.9550 N.am   22  ILE22      -0.1966
     11  CA       144.2180   20.0190   79.9720 C.3    22  ILE22       0.1727
     12  C        143.1310   18.9780   79.7450 C.2    22  ILE22       0.2616
     13  O        142.3510   18.6680   80.6450 O.2    22  ILE22      -0.2715
     14  CB       145.5040   19.3050   80.4310 C.3    22  ILE22       0.0290
     15  CG1      146.5610   20.3470   80.8020 C.3    22  ILE22       0.0022
     16  CG2      146.0080   18.3790   79.3420 C.3    22  ILE22       0.0023
     17  CD1      146.7210   21.4530   79.7800 C.3    22  ILE22       0.0001
     18  N        143.0860   18.4420   78.5350 N.am   23  LYS23      -0.1963
     19  CA       142.1110   17.4220   78.1890 C.3    23  LYS23       0.1728
     20  C        142.8770   16.1010   78.1870 C.2    23  LYS23       0.2617
     21  O        144.0050   16.0440   77.6970 O.2    23  LYS23      -0.2715
     22  CB       141.5360   17.7020   76.7960 C.3    23  LYS23       0.0311
     23  CG       140.2140   17.0140   76.4990 C.3    23  LYS23       0.0038
     24  CD       139.0600   17.6910   77.2240 C.3    23  LYS23       0.0206
     25  CE       137.7440   17.0250   76.8770 C.3    23  LYS23       0.1093
     26  NZ       137.7760   15.5770   77.2070 N.3    23  LYS23      -0.1314
     27  N        142.2810   15.0460   78.7350 N.am   24  THR24      -0.1937
     28  CA       142.9570   13.7510   78.7780 C.3    24  THR24       0.2028
     29  C        142.0470   12.6140   78.3300 C.2    24  THR24       0.2642
     30  O        140.8270   12.7450   78.3460 O.2    24  THR24      -0.2714
     31  CB       143.4690   13.4170   80.1990 C.3    24  THR24       0.1808
     32  OG1      142.3700   12.9980   81.0150 O.3    24  THR24      -0.2208
     33  CG2      144.1200   14.6350   80.8400 C.3    24  THR24       0.0379
     34  N        142.6490   11.4940   77.9430 N.am   25  LYS25      -0.1963
     35  CA       141.8940   10.3360   77.4830 C.3    25  LYS25       0.1728
     36  C        142.8080    9.1390   77.2700 C.2    25  LYS25       0.2616
     37  O        143.8520    9.2620   76.6350 O.2    25  LYS25      -0.2715
     38  CB       141.2020   10.6610   76.1630 C.3    25  LYS25       0.0311
     39  CG       140.4970    9.4850   75.5200 C.3    25  LYS25       0.0038
     40  CD       139.1660    9.1980   76.1860 C.3    25  LYS25       0.0206
     41  CE       138.4250    8.0980   75.4460 C.3    25  LYS25       0.1093
     42  NZ       137.0070    7.9880   75.8810 N.3    25  LYS25      -0.1314
     43  N        142.4190    7.9800   77.7940 N.am   26  LYS26      -0.1963
     44  CA       143.2140    6.7690   77.6140 C.3    26  LYS26       0.1728
     45  C        142.9420    6.2020   76.2230 C.2    26  LYS26       0.2616
     46  O        141.7940    6.0420   75.8220 O.2    26  LYS26      -0.2715
     47  CB       142.8640    5.7290   78.6800 C.3    26  LYS26       0.0311
     48  CG       143.2110    6.1640   80.0900 C.3    26  LYS26       0.0038
     49  CD       142.9210    5.0640   81.0930 C.3    26  LYS26       0.0206
     50  CE       143.3080    5.4810   82.5100 C.3    26  LYS26       0.1093
     51  NZ       142.9190    4.4480   83.5170 N.3    26  LYS26      -0.1314
     52  N        144.0060    5.9180   75.4820 N.am   27  VAL27      -0.1977
     53  CA       143.8700    5.3820   74.1370 C.3    27  VAL27       0.1596
     54  C        144.8560    4.2320   73.9630 C.2    27  VAL27       0.2287
     55  O        145.5100    3.8260   74.9230 O.2    27  VAL27      -0.2864
     56  CB       144.1540    6.4740   73.0820 C.3    27  VAL27       0.0276
     57  CG1      143.2560    7.6800   73.3310 C.3    27  VAL27       0.0022
     58  CG2      145.6150    6.8880   73.1390 C.3    27  VAL27       0.0022
     59  N        146.1890    8.0520   67.6060 N.3    32  GLN32      -0.1245
     60  CA       144.8280    8.4210   67.9650 C.3    32  GLN32       0.1566
     61  C        144.8190    9.8270   68.5510 C.2    32  GLN32       0.2260
     62  O        143.8770   10.5910   68.3480 O.2    32  GLN32      -0.2867
     63  CB       144.2660    7.4370   68.9900 C.3    32  GLN32       0.0367
     64  CG       143.8400    6.0960   68.4140 C.3    32  GLN32       0.0905
     65  CD       143.4520    5.1090   69.4980 C.2    32  GLN32       0.2608
     66  OE1      144.3120    4.4610   70.1030 O.2    32  GLN32      -0.2717
     67  NE2      142.1520    5.0040   69.7670 N.am   32  GLN32      -0.0878
     68  N        142.7780   13.1960   66.7220 N.3    36  ARG36      -0.1245
     69  CA       141.8730   14.0960   67.4140 C.3    36  ARG36       0.1563
     70  C        142.4090   15.5200   67.5100 C.2    36  ARG36       0.2260
     71  O        141.6420   16.4800   67.5010 O.2    36  ARG36      -0.2867
     72  CB       141.5800   13.5650   68.8110 C.3    36  ARG36       0.0307
     73  CG       140.5790   14.4020   69.5710 C.3    36  ARG36       0.0489
     74  CD       139.9940   13.6000   70.7130 C.3    36  ARG36       0.2205
     75  NE       139.0480   14.3720   71.5100 N.pl3  36  ARG36      -0.0865
     76  CZ       138.4110   13.8860   72.5680 C.cat  36  ARG36       0.5346
     77  NH1      138.6240   12.6330   72.9480 N.pl3  36  ARG36       0.1354
     78  NH2      137.5720   14.6520   73.2520 N.pl3  36  ARG36       0.1354
     79  N        142.1880   17.1820   63.7660 N.3    39  ARG39      -0.1245
     80  CA       140.7960   17.4970   63.4610 C.3    39  ARG39       0.1563
     81  C        140.2250   18.3960   64.5550 C.2    39  ARG39       0.2260
     82  O        139.1530   18.9770   64.3980 O.2    39  ARG39      -0.2867
     83  CB       139.9650   16.2140   63.3780 C.3    39  ARG39       0.0307
     84  CG       140.4430   15.2620   62.3240 C.3    39  ARG39       0.0489
     85  CD       139.5770   13.9870   62.2220 C.3    39  ARG39       0.2205
     86  NE       139.4010   13.3450   63.4870 N.pl3  39  ARG39      -0.0865
     87  CZ       138.6820   12.2430   63.6900 C.cat  39  ARG39       0.5346
     88  NH1      138.0500   11.6520   62.6920 N.pl3  39  ARG39       0.1354
     89  NH2      138.7280   11.6870   64.9150 N.pl3  39  ARG39       0.1354
     90  N        138.7910   17.6500   67.0630 N.3    41  LYS41      -0.1231
     91  CA       137.4620   17.1410   67.3860 C.3    41  LYS41       0.1693
     92  C        137.2170   16.9710   68.8800 C.2    41  LYS41       0.2592
     93  O        137.9950   16.3220   69.5800 O.2    41  LYS41      -0.2718
     94  CB       137.2230   15.8050   66.6690 C.3    41  LYS41       0.0285
     95  CG       137.0170   15.9020   65.1610 C.3    41  LYS41       0.0035
     96  CD       135.7740   16.7230   64.8370 C.3    41  LYS41       0.0206
     97  CE       135.1100   16.2970   63.5240 C.3    41  LYS41       0.1093
     98  NZ       135.9970   16.4710   62.3300 N.3    41  LYS41      -0.1314
     99  N        136.1270   17.5530   69.3670 N.am   42  GLY42      -0.1957
    100  CA       135.7950   17.4350   70.7750 C.3    42  GLY42       0.1869
    101  C        136.7880   18.0590   71.7360 C.2    42  GLY42       0.2309
    102  O        136.9890   17.5460   72.8340 O.2    42  GLY42      -0.2863
    103  N        148.1170    7.0090   77.9730 N.3    58  GLN58      -0.1245
    104  CA       147.1900    8.1180   78.0840 C.3    58  GLN58       0.1566
    105  C        147.5930    9.2830   77.1750 C.2    58  GLN58       0.2260
    106  O        148.7570    9.4170   76.7880 O.2    58  GLN58      -0.2867
    107  CB       147.1320    8.5810   79.5350 C.3    58  GLN58       0.0367
    108  CG       146.0620    9.6150   79.8050 C.3    58  GLN58       0.0905
    109  CD       146.0380   10.0420   81.2550 C.2    58  GLN58       0.2608
    110  OE1      147.0140   10.5920   81.7650 O.2    58  GLN58      -0.2717
    111  NE2      144.9210    9.7860   81.9320 N.am   58  GLN58      -0.0878
    112  N        146.0750   16.7110   75.7230 N.3    61  TRP61      -0.1241
    113  CA       146.0080   17.7660   74.7080 C.3    61  TRP61       0.1605
    114  C        146.1590   19.1140   75.3770 C.2    61  TRP61       0.2264
    115  O        145.4970   19.3900   76.3770 O.2    61  TRP61      -0.2867
    116  CB       144.6850   17.7000   73.9510 C.3    61  TRP61       0.0550
    117  CG       144.5390   16.4610   73.1510 C.ar   61  TRP61       0.0003
    118  CD1      145.1220   16.1890   71.9530 C.ar   61  TRP61       0.0946
    119  CD2      143.7690   15.3030   73.4980 C.ar   61  TRP61       0.0152
    120  NE1      144.7650   14.9290   71.5250 N.ar   61  TRP61      -0.2442
    121  CE2      143.9360   14.3630   72.4570 C.ar   61  TRP61       0.0810
    122  CE3      142.9540   14.9690   74.5910 C.ar   61  TRP61       0.0012
    123  CZ2      143.3200   13.1080   72.4690 C.ar   61  TRP61       0.0191
    124  CZ3      142.3370   13.7180   74.6080 C.ar   61  TRP61       0.0001
    125  CH2      142.5250   12.8010   73.5500 C.ar   61  TRP61       0.0015
@<TRIPOS>BOND
     1    85    84    1
     2    85    86    1
     3    84    83    1
     4    98    97    1
     5    88    87    1
     6    83    80    1
     7    80    79    1
     8    80    81    1
     9    86    87    2
    10    97    96    1
    11    87    89    1
    12    82    81    2
    13    96    95    1
    14    95    94    1
    15    94    91    1
    16    68    69    1
    17    90    91    1
    18    91    92    1
    19    69    70    1
    20    69    72    1
    21    71    70    2
    22    59    60    1
    23    60    61    1
    24    60    63    1
    25    62    61    2
    26    64    63    1
    27    64    65    1
    28    72    73    1
    29    92    99   am
    30    92    93    2
    31    99   100    1
    32    65    67   am
    33    65    66    2
    34    73    74    1
    35    74    75    1
    36   100   101    1
    37    75    76    2
    38   120   118   ar
    39   120   121   ar
    40   101   102    2
    41   118   117   ar
    42   121   123   ar
    43   121   119   ar
    44   123   125   ar
    45    76    77    1
    46    76    78    1
    47    56    58    1
    48    56    57    1
    49    56    53    1
    50   117   119   ar
    51   117   116    1
    52   119   122   ar
    53   125   124   ar
    54   116   113    1
    55    54    53    1
    56    54    55    2
    57    53    52    1
    58   122   124   ar
    59   113   114    1
    60   113   112    1
    61   114   115    2
    62    41    42    1
    63    41    40    1
    64    52    45   am
    65    39    38    1
    66    39    40    1
    67    46    45    2
    68    38    35    1
    69    45    44    1
    70    23    22    1
    71    23    24    1
    72    37    36    2
    73   106   105    2
    74    22    19    1
    75    25    26    1
    76    25    24    1
    77   105   104    1
    78    36    35    1
    79    36    43   am
    80    35    34    1
    81    44    43    1
    82    44    47    1
    83    21    20    2
    84    34    29   am
    85   103   104    1
    86   104   107    1
    87    20    19    1
    88    20    27   am
    89    19    18    1
    90    29    30    2
    91    29    28    1
    92    18    12   am
    93    47    48    1
    94    27    28    1
    95    28    31    1
    96    16    14    1
    97   107   108    1
    98    12    11    1
    99    12    13    2
   100    17    15    1
   101   108   109    1
   102     4     3    2
   103    11    14    1
   104    11    10    1
   105    48    49    1
   106    31    33    1
   107    31    32    1
   108    14    15    1
   109     3    10   am
   110     3     2    1
   111    49    50    1
   112     1     2    1
   113   109   110    2
   114   109   111   am
   115     2     5    1
   116    50    51    1
   117     5     6    1
   118     6     7    1
   119     7     8    1
   120     8     9    1
