@<TRIPOS>MOLECULE
tmp/1gmpA00.pdb
 124 121 0 0 0
SMALL
GASTEIGER

@<TRIPOS>ATOM
      1  N         64.3190    3.5650   21.6390 N.3    32  GLN32      -0.1245
      2  CA        62.9100    3.8130   21.3380 C.3    32  GLN32       0.1566
      3  C         62.4930    3.2240   19.9840 C.2    32  GLN32       0.2260
      4  O         61.2800    3.1910   19.7060 O.2    32  GLN32      -0.2867
      5  CB        62.5250    5.2770   21.2470 C.3    32  GLN32       0.0367
      6  CG        62.7290    6.0100   22.5340 C.3    32  GLN32       0.0905
      7  CD        64.1600    6.4020   22.8030 C.2    32  GLN32       0.2608
      8  OE1       65.1310    6.2280   22.0780 O.2    32  GLN32      -0.2717
      9  NE2       64.2910    6.9930   23.9950 N.am   32  GLN32      -0.0878
     10  N         59.0930    0.9580   19.2120 N.3    35  VAL35      -0.1231
     11  CA        58.0050    1.0030   20.2290 C.3    35  VAL35       0.1692
     12  C         56.6990    1.2840   19.4620 C.2    35  VAL35       0.2592
     13  O         56.7100    1.7240   18.3090 O.2    35  VAL35      -0.2718
     14  CB        58.2600    1.9950   21.3580 C.3    35  VAL35       0.0266
     15  CG1       59.5450    1.6780   22.1180 C.3    35  VAL35       0.0020
     16  CG2       58.2330    3.4470   20.9180 C.3    35  VAL35       0.0020
     17  N         55.5930    1.0250   20.1610 N.am   36  VAL36      -0.1966
     18  CA        54.2710    1.2670   19.5410 C.3    36  VAL36       0.1727
     19  C         54.0270    2.7700   19.3830 C.2    36  VAL36       0.2616
     20  O         54.3620    3.5690   20.2660 O.2    36  VAL36      -0.2715
     21  CB        53.1650    0.6020   20.4420 C.3    36  VAL36       0.0290
     22  CG1       51.7510    0.9710   19.9280 C.3    36  VAL36       0.0023
     23  CG2       53.3360   -0.9050   20.3240 C.3    36  VAL36       0.0023
     24  N         53.4770    3.1220   18.2300 N.am   37  PHE37      -0.1960
     25  CA        53.0490    4.5040   17.9380 C.3    37  PHE37       0.1771
     26  C         51.5030    4.4290   18.2240 C.2    37  PHE37       0.2619
     27  O         50.8260    3.6240   17.5770 O.2    37  PHE37      -0.2715
     28  CB        53.3030    4.8720   16.4760 C.3    37  PHE37       0.0574
     29  CG        52.7770    6.2430   16.2100 C.ar   37  PHE37      -0.0200
     30  CD1       53.3660    7.3720   16.7960 C.ar   37  PHE37      -0.0042
     31  CD2       51.6870    6.3620   15.3550 C.ar   37  PHE37      -0.0042
     32  CE1       52.8260    8.6430   16.5240 C.ar   37  PHE37      -0.0003
     33  CE2       51.1680    7.6250   15.0760 C.ar   37  PHE37      -0.0003
     34  CZ        51.7330    8.7440   15.6840 C.ar   37  PHE37      -0.0000
     35  N         51.0580    5.2480   19.1530 N.am   38  GLN38      -0.1963
     36  CA        49.6400    5.1680   19.5390 C.3    38  GLN38       0.1733
     37  C         48.6280    5.7310   18.5610 C.2    38  GLN38       0.2616
     38  O         47.4360    5.3750   18.6790 O.2    38  GLN38      -0.2715
     39  CB        49.4220    5.8090   20.9110 C.3    38  GLN38       0.0408
     40  CG        50.0840    5.0760   22.0670 C.3    38  GLN38       0.0908
     41  CD        49.6250    5.7910   23.3330 C.2    38  GLN38       0.2608
     42  OE1       48.4550    6.1970   23.3700 O.2    38  GLN38      -0.2717
     43  NE2       50.5950    5.8970   24.2040 N.am   38  GLN38      -0.0878
     44  N         49.0330    6.5910   17.6540 N.am   39  ASN39      -0.1958
     45  CA        48.1040    7.2880   16.7380 C.3    39  ASN39       0.1819
     46  C         47.0740    8.0330   17.6280 C.2    39  ASN39       0.2621
     47  O         45.8650    8.0660   17.2600 O.2    39  ASN39      -0.2715
     48  CB        47.3870    6.3400   15.7890 C.3    39  ASN39       0.1195
     49  CG        46.7000    7.0400   14.6620 C.2    39  ASN39       0.2630
     50  OD1       47.1660    8.0860   14.2250 O.2    39  ASN39      -0.2716
     51  ND2       45.5870    6.4800   14.1660 N.am   39  ASN39      -0.0877
     52  N         47.4860    8.5990   18.7200 N.am   40  ARG40      -0.1963
     53  CA        46.6720    9.2740   19.7320 C.3    40  ARG40       0.1729
     54  C         45.8910   10.4340   19.1510 C.2    40  ARG40       0.2616
     55  O         44.7190   10.6450   19.5550 O.2    40  ARG40      -0.2715
     56  CB        47.5480    9.6360   20.9100 C.3    40  ARG40       0.0348
     57  CG        46.9350   10.2710   22.1110 C.3    40  ARG40       0.0492
     58  CD        48.0770   10.6500   23.0400 C.3    40  ARG40       0.2205
     59  NE        49.0330    9.5550   23.1420 N.pl3  40  ARG40      -0.0865
     60  CZ        50.3360    9.6690   23.3930 C.cat  40  ARG40       0.5346
     61  NH1       50.9970   10.7910   23.5970 N.pl3  40  ARG40       0.1354
     62  NH2       51.0420    8.5410   23.4330 N.pl3  40  ARG40       0.1354
     63  N         46.4930   11.1250   18.1860 N.am   41  GLU41      -0.1977
     64  CA        45.8360   12.3020   17.5750 C.3    41  GLU41       0.1602
     65  C         44.8980   11.9560   16.4400 C.2    41  GLU41       0.2287
     66  O         44.3030   12.8460   15.8290 O.2    41  GLU41      -0.2864
     67  CB        46.9310   13.3260   17.1480 C.3    41  GLU41       0.0415
     68  CG        47.7310   13.9410   18.3300 C.3    41  GLU41       0.1163
     69  CD        48.7590   12.9980   18.9190 C.2    41  GLU41       0.3649
     70  OE1       49.4280   12.2240   18.2710 O.co2  41  GLU41      -0.2457
     71  OE2       48.8090   13.0130   20.1600 O.co2  41  GLU41      -0.2457
     72  N         56.9700    3.0060   15.7210 N.3    54  GLU54      -0.1245
     73  CA        57.7880    4.1530   15.3000 C.3    54  GLU54       0.1567
     74  C         59.2950    3.8150   15.3600 C.2    54  GLU54       0.2260
     75  O         59.8120    3.0790   16.1840 O.2    54  GLU54      -0.2867
     76  CB        57.5850    5.3820   16.1840 C.3    54  GLU54       0.0388
     77  CG        57.7740    5.0630   17.6450 C.3    54  GLU54       0.1160
     78  CD        58.2160    6.2200   18.5130 C.2    54  GLU54       0.3649
     79  OE1       59.3020    6.7180   18.2430 O.co2  54  GLU54      -0.2457
     80  OE2       57.4640    6.5830   19.3790 O.co2  54  GLU54      -0.2457
     81  N         66.9620   12.8240   19.3360 N.3    65  ARG65      -0.1245
     82  CA        66.3040   12.0500   18.3050 C.3    65  ARG65       0.1563
     83  C         65.6100   12.9060   17.2540 C.2    65  ARG65       0.2260
     84  O         65.1530   12.4270   16.1980 O.2    65  ARG65      -0.2867
     85  CB        65.3040   11.0400   18.8700 C.3    65  ARG65       0.0307
     86  CG        65.9790    9.8010   19.4180 C.3    65  ARG65       0.0489
     87  CD        65.0090    8.8500   20.0570 C.3    65  ARG65       0.2205
     88  NE        64.0960    8.3170   19.0770 N.pl3  65  ARG65      -0.0865
     89  CZ        62.7740    8.2230   19.2630 C.cat  65  ARG65       0.5346
     90  NH1       62.2240    8.7720   20.3280 N.pl3  65  ARG65       0.1354
     91  NH2       62.0320    7.5790   18.3810 N.pl3  65  ARG65       0.1354
     92  N         60.6770   10.6910   11.7080 N.3    69  ARG69      -0.1245
     93  CA        60.3620    9.3130   12.1110 C.3    69  ARG69       0.1563
     94  C         59.7110    8.6020   10.9210 C.2    69  ARG69       0.2260
     95  O         59.1890    9.2510   10.0070 O.2    69  ARG69      -0.2867
     96  CB        59.2260    9.2820   13.1810 C.3    69  ARG69       0.0307
     97  CG        59.4840   10.0760   14.4670 C.3    69  ARG69       0.0489
     98  CD        60.3380    9.2830   15.4140 C.3    69  ARG69       0.2205
     99  NE        60.4220    9.9670   16.7050 N.pl3  69  ARG69      -0.0865
    100  CZ        61.2950   10.9480   16.9590 C.cat  69  ARG69       0.5346
    101  NH1       62.2040   11.3300   16.0490 N.pl3  69  ARG69       0.1354
    102  NH2       61.3630   11.5500   18.1580 N.pl3  69  ARG69       0.1354
    103  N         57.5590   15.6110   13.7400 N.3    85  HIS85      -0.1226
    104  CA        57.1710   14.9270   14.9640 C.3    85  HIS85       0.1752
    105  C         55.6420   14.6650   15.0330 C.2    85  HIS85       0.2596
    106  O         55.0100   14.9760   16.0490 O.2    85  HIS85      -0.2718
    107  CB        57.6350   15.6780   16.2410 C.3    85  HIS85       0.0759
    108  CG        57.6820   14.8130   17.4640 C.ar   85  HIS85       0.0818
    109  ND1       56.7630   14.8430   18.5020 N.ar   85  HIS85      -0.2268
    110  CD2       58.5680   13.8500   17.7930 C.ar   85  HIS85       0.1154
    111  CE1       57.1000   13.9490   19.4100 C.ar   85  HIS85       0.1986
    112  NE2       58.1890   13.3370   19.0140 N.ar   85  HIS85      -0.2212
    113  N         55.1500   14.0330   14.0060 N.am   86  TYR86      -0.1976
    114  CA        53.7660   13.5560   13.9210 C.3    86  TYR86       0.1639
    115  C         52.6770   14.5540   13.6250 C.2    86  TYR86       0.2290
    116  O         51.4790   14.1760   13.7890 O.2    86  TYR86      -0.2864
    117  CB        53.4090   12.7960   15.2210 C.3    86  TYR86       0.0560
    118  CG        54.4510   11.8250   15.7300 C.ar   86  TYR86      -0.0198
    119  CD1       54.9320   10.8220   14.8430 C.ar   86  TYR86      -0.0009
    120  CD2       54.9340   11.9070   17.0380 C.ar   86  TYR86      -0.0009
    121  CE1       55.8970    9.9280   15.3240 C.ar   86  TYR86       0.0417
    122  CE2       55.9080   10.9970   17.4880 C.ar   86  TYR86       0.0417
    123  CZ        56.3570   10.0160   16.6320 C.ar   86  TYR86       0.1957
    124  OH        57.3130    9.1550   17.0910 O.3    86  TYR86      -0.2866
@<TRIPOS>BOND
     1    95    94    2
     2    94    93    1
     3    92    93    1
     4    93    96    1
     5    96    97    1
     6   115   116    2
     7   115   114    1
     8   103   104    1
     9   114   113    1
    10   114   117    1
    11   113   105   am
    12    51    49   am
    13    50    49    2
    14    97    98    1
    15    49    48    1
    16   119   121   ar
    17   119   118   ar
    18   104   105    1
    19   104   107    1
    20   105   106    2
    21    33    31   ar
    22    33    34   ar
    23   117   118    1
    24    73    74    1
    25    73    72    1
    26    73    76    1
    27   121   123   ar
    28    31    29   ar
    29    74    75    2
    30    98    99    1
    31    34    32   ar
    32   118   120   ar
    33    48    45    1
    34    66    65    2
    35   101   100    1
    36    76    77    1
    37    84    83    2
    38    29    28    1
    39    29    30   ar
    40   107   108    1
    41    65    64    1
    42    28    25    1
    43    32    30   ar
    44   123   124    1
    45   123   122   ar
    46    99   100    2
    47    45    46    1
    48    45    44    1
    49   100   102    1
    50   120   122   ar
    51    67    64    1
    52    67    68    1
    53    83    82    1
    54    47    46    2
    55   108   110   ar
    56   108   109   ar
    57    64    63    1
    58    27    26    2
    59    46    52   am
    60    77    78    1
    61    44    37   am
    62   110   112   ar
    63    25    26    1
    64    25    24    1
    65    63    54   am
    66    26    35   am
    67    24    19   am
    68    79    78   ar
    69    70    69   ar
    70    82    85    1
    71    82    81    1
    72    13    12    2
    73    68    69    1
    74    91    89    1
    75   109   111   ar
    76    78    80   ar
    77    37    38    2
    78    37    36    1
    79    52    53    1
    80    85    86    1
    81    69    71   ar
    82   112   111   ar
    83    88    89    2
    84    88    87    1
    85    54    55    2
    86    54    53    1
    87    35    36    1
    88    10    11    1
    89    89    90    1
    90    19    18    1
    91    19    20    2
    92    86    87    1
    93    12    17   am
    94    12    11    1
    95    36    39    1
    96    18    17    1
    97    18    21    1
    98     4     3    2
    99    53    56    1
   100    22    21    1
   101     3     2    1
   102    11    14    1
   103    23    21    1
   104    56    57    1
   105    39    40    1
   106    16    14    1
   107     5     2    1
   108     5     6    1
   109     2     1    1
   110    14    15    1
   111    40    41    1
   112     8     7    2
   113    57    58    1
   114     6     7    1
   115     7     9   am
   116    58    59    1
   117    59    60    2
   118    41    42    2
   119    41    43   am
   120    60    62    1
   121    60    61    1
