@<TRIPOS>MOLECULE
tmp/1gmyB01.pdb
 95 95 0 0 0
SMALL
GASTEIGER

@<TRIPOS>ATOM
      1  N         46.8750   38.7330   22.2880 N.3    28  GLY28      -0.1225
      2  CA        45.7330   37.9600   22.7540 C.3    28  GLY28       0.1811
      3  C         44.6720   37.8780   21.6660 C.2    28  GLY28       0.2280
      4  O         43.5020   38.1690   21.9070 O.2    28  GLY28      -0.2866
      5  N         43.5820   35.0940   20.0580 N.3    30  CYS30      -0.1221
      6  CA        42.9560   33.7720   19.8900 C.3    30  CYS30       0.1808
      7  C         41.5130   33.8730   19.3340 C.2    30  CYS30       0.2601
      8  O         41.1080   33.0630   18.5210 O.2    30  CYS30      -0.2717
      9  CB        42.9320   33.0240   21.2260 C.3    30  CYS30       0.0970
     10  SG        41.9420   33.8780   22.4780 S.3    30  CYS30      -0.0800
     11  N         40.7530   34.8820   19.7470 N.am   31  TRP31      -0.1976
     12  CA        39.3690   35.0330   19.2620 C.3    31  TRP31       0.1640
     13  C         39.3250   35.1640   17.7230 C.2    31  TRP31       0.2290
     14  O         38.4120   34.6420   17.0540 O.2    31  TRP31      -0.2864
     15  CB        38.7340   36.2730   19.8940 C.3    31  TRP31       0.0576
     16  CG        39.4780   37.5450   19.5830 C.ar   31  TRP31       0.0006
     17  CD1       40.5500   38.0910   20.2810 C.ar   31  TRP31       0.0946
     18  CD2       39.2040   38.4490   18.5060 C.ar   31  TRP31       0.0152
     19  NE1       40.9390   39.2790   19.6880 N.ar   31  TRP31      -0.2442
     20  CE2       40.1330   39.5170   18.6010 C.ar   31  TRP31       0.0810
     21  CE3       38.2680   38.4560   17.4640 C.ar   31  TRP31       0.0012
     22  CZ2       40.1440   40.5850   17.6840 C.ar   31  TRP31       0.0191
     23  CZ3       38.2830   39.5240   16.5420 C.ar   31  TRP31       0.0001
     24  CH2       39.2130   40.5670   16.6640 C.ar   31  TRP31       0.0015
     25  N         42.1910   40.7890   23.6310 N.3    74  GLY74      -0.1210
     26  CA        41.0290   39.9210   23.7740 C.3    74  GLY74       0.1956
     27  C         39.8370   40.3930   22.9690 C.2    74  GLY74       0.2612
     28  O         39.7060   41.5780   22.6560 O.2    74  GLY74      -0.2717
     29  N         38.9530   39.4640   22.6220 N.am   75  GLY75      -0.1942
     30  CA        37.8160   39.8360   21.8090 C.3    75  GLY75       0.2014
     31  C         36.7120   38.8080   21.8050 C.2    75  GLY75       0.2639
     32  O         36.7670   37.8180   22.5320 O.2    75  GLY75      -0.2714
     33  N         35.7210   39.0370   20.9550 N.am   76  TYR76      -0.1960
     34  CA        34.5570   38.1620   20.9000 C.3    76  TYR76       0.1756
     35  C         34.4430   37.2980   19.6600 C.2    76  TYR76       0.2461
     36  O         34.2920   37.8140   18.5630 O.2    76  TYR76      -0.2730
     37  CB        33.2700   38.9900   20.9670 C.3    76  TYR76       0.0574
     38  CG        33.2410   40.0480   22.0290 C.ar   76  TYR76      -0.0198
     39  CD1       33.4470   41.3900   21.7150 C.ar   76  TYR76      -0.0009
     40  CD2       33.0090   39.7060   23.3630 C.ar   76  TYR76      -0.0009
     41  CE1       33.4190   42.3650   22.7130 C.ar   76  TYR76       0.0417
     42  CE2       32.9860   40.6660   24.3600 C.ar   76  TYR76       0.0417
     43  CZ        33.1900   41.9840   24.0370 C.ar   76  TYR76       0.1957
     44  OH        33.1960   42.9080   25.0560 O.3    76  TYR76      -0.2866
     45  N         34.5330   35.9720   19.8150 N.am   77  PRO77      -0.2727
     46  CA        34.4000   35.0920   18.6540 C.3    77  PRO77       0.1402
     47  C         33.1100   35.3840   17.8580 C.2    77  PRO77       0.2269
     48  O         33.1060   35.3880   16.6170 O.2    77  PRO77      -0.2865
     49  CB        34.3590   33.7040   19.3010 C.3    77  PRO77       0.0296
     50  CG        35.3560   33.8610   20.4130 C.3    77  PRO77       0.0237
     51  CD        34.9440   35.2030   21.0080 C.3    77  PRO77       0.0939
     52  N         35.5140   28.0760   22.6030 N.3   174  ALA174     -0.1231
     53  CA        36.2920   28.7530   23.6280 C.3   174  ALA174      0.1694
     54  C         36.0940   28.0150   24.9400 C.2   174  ALA174      0.2592
     55  O         35.0520   27.3840   25.1730 O.2   174  ALA174     -0.2718
     56  CB        35.8620   30.2360   23.7510 C.3   174  ALA174      0.0304
     57  N         37.1080   28.0840   25.7930 N.am  175  PHE175     -0.1976
     58  CA        37.0460   27.4240   27.0730 C.3   175  PHE175      0.1639
     59  C         37.9200   28.1550   28.0840 C.2   175  PHE175      0.2290
     60  O         38.7460   29.0000   27.7340 O.2   175  PHE175     -0.2864
     61  CB        37.5200   25.9760   26.9440 C.3   175  PHE175      0.0560
     62  CG        38.9700   25.8490   26.6260 C.ar  175  PHE175     -0.0200
     63  CD1       39.8690   25.3810   27.5910 C.ar  175  PHE175     -0.0042
     64  CD2       39.4560   26.2270   25.3710 C.ar  175  PHE175     -0.0042
     65  CE1       41.2340   25.2980   27.3130 C.ar  175  PHE175     -0.0003
     66  CE2       40.8270   26.1490   25.0760 C.ar  175  PHE175     -0.0003
     67  CZ        41.7140   25.6870   26.0470 C.ar  175  PHE175     -0.0000
     68  N         39.7840   33.1160   29.4870 N.3   199  GLY199     -0.1210
     69  CA        39.1250   32.3860   28.4160 C.3   199  GLY199      0.1956
     70  C         39.9990   32.3190   27.1810 C.2   199  GLY199      0.2612
     71  O         40.7050   33.2760   26.8450 O.2   199  GLY199     -0.2717
     72  N         39.9270   31.2030   26.4710 N.am  200  HIS200     -0.1961
     73  CA        40.7650   31.0430   25.2880 C.3   200  HIS200      0.1787
     74  C         39.9160   30.4920   24.1420 C.2   200  HIS200      0.2620
     75  O         39.1400   29.5730   24.3350 O.2   200  HIS200     -0.2715
     76  CB        41.9240   30.1030   25.6370 C.3   200  HIS200      0.0785
     77  CG        42.9340   29.9300   24.5390 C.ar  200  HIS200      0.0821
     78  ND1       43.5730   30.9920   23.9350 N.ar  200  HIS200     -0.2267
     79  CD2       43.4460   28.8130   23.9700 C.ar  200  HIS200      0.1154
     80  CE1       44.4310   30.5410   23.0410 C.ar  200  HIS200      0.1986
     81  NE2       44.3760   29.2200   23.0430 N.ar  200  HIS200     -0.2212
     82  N         40.0710   31.0800   22.9630 N.am  201  ALA201     -0.1977
     83  CA        39.3080   30.6860   21.7870 C.3   201  ALA201      0.1597
     84  C         40.1790   29.7910   20.9220 C.2   201  ALA201      0.2287
     85  O         41.3770   30.0440   20.7410 O.2   201  ALA201     -0.2864
     86  CB        38.8510   31.9580   20.9910 C.3   201  ALA201      0.0319
     87  N         30.5830   27.9050   23.9400 N.3   246  GLU246     -0.1245
     88  CA        30.9340   29.1240   23.2170 C.3   246  GLU246      0.1567
     89  C         31.2390   28.8080   21.7690 C.2   246  GLU246      0.2260
     90  O         32.0620   29.4690   21.1310 O.2   246  GLU246     -0.2867
     91  CB        32.1370   29.8020   23.8750 C.3   246  GLU246      0.0388
     92  CG        31.8460   30.3460   25.2600 C.3   246  GLU246      0.1160
     93  CD        30.9560   31.5990   25.2400 C.2   246  GLU246      0.3649
     94  OE1       30.5340   32.0450   26.3180 O.co2 246  GLU246     -0.2457
     95  OE2       30.6860   32.1410   24.1550 O.co2 246  GLU246     -0.2457
@<TRIPOS>BOND
     1    23    24   ar
     2    23    21   ar
     3    48    47    2
     4    24    22   ar
     5    14    13    2
     6    21    18   ar
     7    22    20   ar
     8    13    12    1
     9    47    46    1
    10    18    20   ar
    11    18    16   ar
    12     8     7    2
    13    36    35    2
    14    20    19   ar
    15    46    49    1
    16    46    45    1
    17    12    11    1
    18    12    15    1
    19    49    50    1
    20     7    11   am
    21     7     6    1
    22    16    15    1
    23    16    17   ar
    24    35    45   am
    25    35    34    1
    26    19    17   ar
    27    45    51    1
    28     6     5    1
    29     6     9    1
    30    50    51    1
    31    85    84    2
    32    34    33    1
    33    34    37    1
    34    84    83    1
    35    33    31   am
    36    37    38    1
    37    86    83    1
    38    90    89    2
    39     9    10    1
    40     3     4    2
    41     3     2    1
    42    39    38   ar
    43    39    41   ar
    44    89    88    1
    45    83    82    1
    46    31    30    1
    47    31    32    2
    48    30    29    1
    49    38    40   ar
    50     1     2    1
    51    52    53    1
    52    29    27   am
    53    28    27    2
    54    41    43   ar
    55    82    74   am
    56    27    26    1
    57    80    81   ar
    58    80    78   ar
    59    81    79   ar
    60    88    91    1
    61    88    87    1
    62    40    42   ar
    63    53    56    1
    64    53    54    1
    65    25    26    1
    66    91    92    1
    67    78    77   ar
    68    79    77   ar
    69    43    42   ar
    70    43    44    1
    71    74    75    2
    72    74    73    1
    73    95    93   ar
    74    77    76    1
    75    54    55    2
    76    54    57   am
    77    66    64   ar
    78    66    67   ar
    79    93    92    1
    80    93    94   ar
    81    73    76    1
    82    73    72    1
    83    64    62   ar
    84    57    58    1
    85    67    65   ar
    86    72    70   am
    87    62    61    1
    88    62    63   ar
    89    71    70    2
    90    61    58    1
    91    58    59    1
    92    70    69    1
    93    65    63   ar
    94    60    59    2
    95    69    68    1
