@<TRIPOS>MOLECULE
tmp/1gneA00.pdb
 135 134 0 0 0
SMALL
GASTEIGER

@<TRIPOS>ATOM
      1  N        -11.3670   19.3110   32.3940 N.3     6  TYR6       -0.1227
      2  CA       -12.6600   19.6460   31.8070 C.3     6  TYR6        0.1736
      3  C        -13.5000   20.4750   32.7640 C.2     6  TYR6        0.2595
      4  O        -13.0040   20.9970   33.7860 O.2     6  TYR6       -0.2718
      5  CB       -13.4030   18.4810   31.1110 C.3     6  TYR6        0.0548
      6  CG       -14.4130   18.8190   30.0290 C.ar    6  TYR6       -0.0200
      7  CD1      -14.1410   19.7710   29.0040 C.ar    6  TYR6       -0.0009
      8  CD2      -15.5320   18.0110   29.8310 C.ar    6  TYR6       -0.0009
      9  CE1      -15.0280   20.0240   27.9960 C.ar    6  TYR6        0.0417
     10  CE2      -16.4120   18.2190   28.7850 C.ar    6  TYR6        0.0417
     11  CZ       -16.1580   19.2250   27.8590 C.ar    6  TYR6        0.1957
     12  OH       -17.0010   19.3530   26.7780 O.3     6  TYR6       -0.2866
     13  N        -14.6800   20.8030   32.3640 N.am    7  TRP7       -0.1976
     14  CA       -15.7300   21.4690   33.1380 C.3     7  TRP7        0.1640
     15  C        -16.4550   20.3560   33.9160 C.2     7  TRP7        0.2290
     16  O        -16.3670   19.1540   33.5370 O.2     7  TRP7       -0.2864
     17  CB       -16.6120   22.3030   32.2180 C.3     7  TRP7        0.0576
     18  CG       -16.0090   23.3210   31.3200 C.ar    7  TRP7        0.0006
     19  CD1      -15.8740   23.2560   29.9540 C.ar    7  TRP7        0.0946
     20  CD2      -15.4000   24.5670   31.7070 C.ar    7  TRP7        0.0152
     21  NE1      -15.2670   24.3930   29.4740 N.ar    7  TRP7       -0.2442
     22  CE2      -14.9700   25.2090   30.5270 C.ar    7  TRP7        0.0810
     23  CE3      -15.2180   25.1900   32.9330 C.ar    7  TRP7        0.0012
     24  CZ2      -14.3010   26.4270   30.5490 C.ar    7  TRP7        0.0191
     25  CZ3      -14.5690   26.4050   32.9580 C.ar    7  TRP7        0.0001
     26  CH2      -14.1200   27.0180   31.7920 C.ar    7  TRP7        0.0015
     27  N        -19.0540   18.9830   33.8590 N.3     9  ILE9       -0.1245
     28  CA       -20.0170   18.5790   32.8790 C.3     9  ILE9        0.1561
     29  C        -19.6030   17.2120   32.3210 C.2     9  ILE9        0.2260
     30  O        -18.4190   16.8680   32.2210 O.2     9  ILE9       -0.2867
     31  CB       -20.3370   19.6150   31.7450 C.3     9  ILE9        0.0252
     32  CG1      -19.1380   20.0870   30.9410 C.3     9  ILE9        0.0019
     33  CG2      -21.1490   20.8090   32.3510 C.3     9  ILE9        0.0019
     34  CD1      -19.3780   20.8700   29.6060 C.3     9  ILE9        0.0001
     35  N        -18.1360   16.4250   26.4690 N.3    12  LEU12      -0.1245
     36  CA       -17.1960   15.7750   25.5850 C.3    12  LEU12       0.1561
     37  C        -16.3890   14.6740   26.2700 C.2    12  LEU12       0.2260
     38  O        -15.9680   13.7100   25.5920 O.2    12  LEU12      -0.2867
     39  CB       -16.3000   16.8290   24.9800 C.3    12  LEU12       0.0270
     40  CG       -16.6700   17.9020   24.0600 C.3    12  LEU12       0.0019
     41  CD1      -15.4080   18.6730   23.6410 C.3    12  LEU12       0.0001
     42  CD2      -17.3140   17.4020   22.7700 C.3    12  LEU12       0.0001
     43  N         -9.0890   29.1640   34.3650 N.3    40  TRP40      -0.1241
     44  CA        -8.7740   28.6140   33.0670 C.3    40  TRP40       0.1605
     45  C         -7.8920   29.5340   32.2210 C.2    40  TRP40       0.2264
     46  O         -6.7700   29.0800   31.8700 O.2    40  TRP40      -0.2867
     47  CB        -9.8320   27.8650   32.2960 C.3    40  TRP40       0.0550
     48  CG        -9.3990   27.1190   31.0710 C.ar   40  TRP40       0.0003
     49  CD1       -9.9520   27.2150   29.8320 C.ar   40  TRP40       0.0946
     50  CD2       -8.1770   26.3650   30.8970 C.ar   40  TRP40       0.0152
     51  NE1       -9.1880   26.5210   28.9100 N.ar   40  TRP40      -0.2442
     52  CE2       -8.1090   25.9800   29.5610 C.ar   40  TRP40       0.0810
     53  CE3       -7.1720   25.9980   31.7810 C.ar   40  TRP40       0.0012
     54  CZ2       -7.0630   25.2220   29.0650 C.ar   40  TRP40       0.0191
     55  CZ3       -6.0890   25.2960   31.2790 C.ar   40  TRP40       0.0001
     56  CH2       -6.0390   24.9020   29.9390 C.ar   40  TRP40       0.0015
     57  N         -4.3720   28.5370   30.7790 N.3    44  LYS44      -0.1245
     58  CA        -4.5880   28.3370   29.3600 C.3    44  LYS44       0.1561
     59  C         -3.3000   28.4290   28.5670 C.2    44  LYS44       0.2260
     60  O         -3.2370   27.7260   27.5330 O.2    44  LYS44      -0.2867
     61  CB        -5.6500   29.2410   28.8000 C.3    44  LYS44       0.0271
     62  CG        -6.0600   29.2060   27.3630 C.3    44  LYS44       0.0035
     63  CD        -7.2740   28.3980   26.9950 C.3    44  LYS44       0.0206
     64  CE        -7.6220   28.5240   25.5130 C.3    44  LYS44       0.1093
     65  NZ        -7.8340   29.9180   25.0850 N.3    44  LYS44      -0.1314
     66  N         -6.5590   24.0530   24.5680 N.3    53  ASN53      -0.1225
     67  CA        -8.0270   23.8690   24.4750 C.3    53  ASN53       0.1785
     68  C         -8.4280   22.8530   25.5400 C.2    53  ASN53       0.2597
     69  O         -7.5510   22.2520   26.2180 O.2    53  ASN53      -0.2718
     70  CB        -8.3480   23.5220   23.0250 C.3    53  ASN53       0.1169
     71  CG        -9.7360   23.6080   22.5480 C.2    53  ASN53       0.2627
     72  OD1      -10.7140   23.8050   23.3080 O.2    53  ASN53      -0.2716
     73  ND2       -9.9310   23.4190   21.2280 N.am   53  ASN53      -0.0877
     74  N         -9.7190   22.7700   25.8130 N.am   54  LEU54      -0.1966
     75  CA       -10.2940   21.8480   26.8400 C.3    54  LEU54       0.1713
     76  C        -11.2150   20.8620   26.0610 C.2    54  LEU54       0.2458
     77  O        -12.0960   21.3030   25.2850 O.2    54  LEU54      -0.2730
     78  CB       -10.9300   22.5310   27.9810 C.3    54  LEU54       0.0310
     79  CG       -10.5290   23.2910   29.1670 C.3    54  LEU54       0.0022
     80  CD1      -11.7730   23.7690   29.9550 C.3    54  LEU54       0.0001
     81  CD2       -9.7210   22.4690   30.1790 C.3    54  LEU54       0.0001
     82  N        -11.0850   19.5800   26.3440 N.am   55  PRO55      -0.2727
     83  CA       -10.3190   18.9810   27.4170 C.3    55  PRO55       0.1402
     84  C         -8.8710   18.7170   27.1820 C.2    55  PRO55       0.2269
     85  O         -8.5030   18.3210   26.0630 O.2    55  PRO55      -0.2865
     86  CB       -11.1260   17.7100   27.6900 C.3    55  PRO55       0.0296
     87  CG       -11.6270   17.2800   26.3220 C.3    55  PRO55       0.0237
     88  CD       -11.8700   18.5780   25.5940 C.3    55  PRO55       0.0939
     89  N         -7.7490   17.9670   22.3480 N.3    66  GLN66      -0.1231
     90  CA        -8.6690   17.4180   21.3880 C.3    66  GLN66       0.1698
     91  C         -9.2470   16.0710   21.7940 C.2    66  GLN66       0.2593
     92  O         -8.5950   15.0320   21.8140 O.2    66  GLN66      -0.2718
     93  CB        -8.1990   17.3890   19.9280 C.3    66  GLN66       0.0381
     94  CG        -8.9300   18.2510   18.9730 C.3    66  GLN66       0.0905
     95  CD        -8.9340   19.7430   19.1660 C.2    66  GLN66       0.2608
     96  OE1      -10.0310   20.3070   19.2760 O.2    66  GLN66      -0.2717
     97  NE2       -7.8010   20.3610   19.3970 N.am   66  GLN66      -0.0878
     98  N        -10.5480   16.0940   22.0220 N.am   67  SER67      -0.1938
     99  CA       -11.3560   15.0270   22.5460 C.3    67  SER67       0.2055
    100  C        -11.0810   13.6890   21.9270 C.2    67  SER67       0.2642
    101  O        -10.6740   12.7910   22.7280 O.2    67  SER67      -0.2714
    102  CB       -12.8050   15.4080   22.6660 C.3    67  SER67       0.2130
    103  OG       -13.4450   15.6560   21.4570 O.3    67  SER67      -0.2179
    104  N        -10.9770   13.5800   20.6230 N.am   68  MET68      -0.1976
    105  CA       -10.6590   12.2720   19.9850 C.3    68  MET68       0.1605
    106  C         -9.2260   11.8780   20.2900 C.2    68  MET68       0.2287
    107  O         -9.0190   10.7930   20.8670 O.2    68  MET68      -0.2864
    108  CB       -11.0820   12.1160   18.5820 C.3    68  MET68       0.0413
    109  CG       -12.5190   12.2690   18.2530 C.3    68  MET68       0.0598
    110  SD       -13.5660   10.9110   18.8240 S.3    68  MET68      -0.1393
    111  CE       -14.0180   11.5330   20.4540 C.3    68  MET68       0.0692
    112  N        -22.8900   14.8720   18.6150 N.3   103  TYR103     -0.1241
    113  CA       -22.6730   16.2320   18.0760 C.3   103  TYR103      0.1605
    114  C        -23.9430   16.8950   17.5550 C.2   103  TYR103      0.2264
    115  O        -24.0430   18.1410   17.4800 O.2   103  TYR103     -0.2867
    116  CB       -21.5110   16.3920   17.1070 C.3   103  TYR103      0.0534
    117  CG       -20.0590   16.2940   17.4360 C.ar  103  TYR103     -0.0201
    118  CD1      -19.5920   16.5200   18.7640 C.ar  103  TYR103     -0.0009
    119  CD2      -19.0780   15.9720   16.4920 C.ar  103  TYR103     -0.0009
    120  CE1      -18.2530   16.4930   19.0940 C.ar  103  TYR103      0.0417
    121  CE2      -17.7190   16.0110   16.7930 C.ar  103  TYR103      0.0417
    122  CZ       -17.3150   16.2560   18.0870 C.ar  103  TYR103      0.1957
    123  OH       -16.0120   16.2670   18.5240 O.3   103  TYR103     -0.2866
    124  N        -27.7050   24.5960   22.4720 N.3   110  TYR110     -0.1241
    125  CA       -27.5120   25.9730   22.9690 C.3   110  TYR110      0.1605
    126  C        -28.4060   26.9630   22.2930 C.2   110  TYR110      0.2264
    127  O        -28.7590   27.9750   22.9280 O.2   110  TYR110     -0.2867
    128  CB       -26.0390   26.3850   22.9210 C.3   110  TYR110      0.0534
    129  CG       -25.0300   25.4590   23.5690 C.ar  110  TYR110     -0.0201
    130  CD1      -24.4340   24.4230   22.7960 C.ar  110  TYR110     -0.0009
    131  CD2      -24.5970   25.6310   24.8580 C.ar  110  TYR110     -0.0009
    132  CE1      -23.4790   23.5800   23.3500 C.ar  110  TYR110      0.0417
    133  CE2      -23.6510   24.7950   25.4220 C.ar  110  TYR110      0.0417
    134  CZ       -23.0820   23.7810   24.6620 C.ar  110  TYR110      0.1957
    135  OH       -22.1400   22.9900   25.2710 O.3   110  TYR110     -0.2866
@<TRIPOS>BOND
     1   119   121   ar
     2   119   117   ar
     3   121   122   ar
     4   116   117    1
     5   116   113    1
     6   117   118   ar
     7   115   114    2
     8   114   113    1
     9   113   112    1
    10   122   123    1
    11   122   120   ar
    12   109   108    1
    13   109   110    1
    14   108   105    1
    15   118   120   ar
    16   110   111    1
    17    94    95    1
    18    94    93    1
    19    95    96    2
    20    95    97   am
    21    93    90    1
    22   105   106    1
    23   105   104    1
    24   106   107    2
    25   104   100   am
    26    73    71   am
    27    90    91    1
    28    90    89    1
    29   103   102    1
    30    91    92    2
    31    91    98   am
    32   100    99    1
    33   100   101    2
    34    98    99    1
    35   126   127    2
    36   126   125    1
    37   124   125    1
    38    99   102    1
    39    71    70    1
    40    71    72    2
    41    42    40    1
    42   130   132   ar
    43   130   129   ar
    44   128   125    1
    45   128   129    1
    46    70    67    1
    47   132   134   ar
    48   129   131   ar
    49    41    40    1
    50    40    39    1
    51    67    66    1
    52    67    68    1
    53   134   135    1
    54   134   133   ar
    55   131   133   ar
    56    39    36    1
    57    65    64    1
    58    77    76    2
    59    64    63    1
    60    68    74   am
    61    68    69    2
    62    36    37    1
    63    36    35    1
    64    38    37    2
    65    88    87    1
    66    88    82    1
    67    74    75    1
    68    76    82   am
    69    76    75    1
    70    85    84    2
    71    87    86    1
    72    82    83    1
    73    12    11    1
    74    75    78    1
    75    63    62    1
    76    84    83    1
    77    62    61    1
    78    83    86    1
    79    60    59    2
    80    11     9   ar
    81    11    10   ar
    82    78    79    1
    83     9     7   ar
    84    59    58    1
    85    10     8   ar
    86    61    58    1
    87    51    52   ar
    88    51    49   ar
    89     7     6   ar
    90    54    52   ar
    91    54    56   ar
    92    79    80    1
    93    79    81    1
    94    58    57    1
    95    21    19   ar
    96    21    22   ar
    97    52    50   ar
    98    34    32    1
    99     8     6   ar
   100    49    48   ar
   101    56    55   ar
   102    19    18   ar
   103     6     5    1
   104    22    24   ar
   105    22    20   ar
   106    24    26   ar
   107    50    48   ar
   108    50    53   ar
   109    32    31    1
   110    48    47    1
   111     5     2    1
   112    55    53   ar
   113    18    20   ar
   114    18    17    1
   115    20    23   ar
   116    31    33    1
   117    31    28    1
   118    26    25   ar
   119     2     1    1
   120     2     3    1
   121    46    45    2
   122    17    14    1
   123    45    44    1
   124    30    29    2
   125    47    44    1
   126    29    28    1
   127    13     3   am
   128    13    14    1
   129     3     4    2
   130    28    27    1
   131    23    25   ar
   132    44    43    1
   133    14    15    1
   134    16    15    2
