@<TRIPOS>MOLECULE
tmp/1gniA06.pdb
 132 123 0 0 0
SMALL
GASTEIGER

@<TRIPOS>ATOM
      1  N         28.4540    4.7250   14.5040 N.3   197  LYS197     -0.1245
      2  CA        29.0550    4.8170   13.1750 C.3   197  LYS197      0.1561
      3  C         29.9450    3.6180   12.8700 C.2   197  LYS197      0.2260
      4  O         29.9130    3.0810   11.7720 O.2   197  LYS197     -0.2867
      5  CB        29.8840    6.0950   13.0210 C.3   197  LYS197      0.0271
      6  CG        29.0970    7.4030   13.1060 C.3   197  LYS197      0.0035
      7  CD        29.9980    8.5990   12.7700 C.3   197  LYS197      0.0206
      8  CE        29.9100    9.7010   13.8250 C.3   197  LYS197      0.1093
      9  NZ        31.2610   10.1240   14.3190 N.3   197  LYS197     -0.1314
     10  N         24.9380   13.3280    3.7350 N.3   216  ARG216     -0.1231
     11  CA        25.3930   14.1960    4.8060 C.3   216  ARG216      0.1694
     12  C         26.3060   15.3100    4.3360 C.2   216  ARG216      0.2591
     13  O         26.1310   16.4640    4.7270 O.2   216  ARG216     -0.2718
     14  CB        26.1130   13.3880    5.8940 C.3   216  ARG216      0.0321
     15  CG        26.3770   14.1680    7.1700 C.3   216  ARG216      0.0489
     16  CD        25.1220   14.9240    7.5850 C.3   216  ARG216      0.2205
     17  NE        25.1730   15.4170    8.9560 N.pl3 216  ARG216     -0.0865
     18  CZ        25.0240   14.6520   10.0300 C.cat 216  ARG216      0.5346
     19  NH1       24.8150   13.3490    9.9000 N.pl3 216  ARG216      0.1354
     20  NH2       25.0720   15.1960   11.2340 N.pl3 216  ARG216      0.1354
     21  N         27.2940   14.9690    3.5180 N.am  217  LEU217     -0.1980
     22  CA        28.2270   15.9780    3.0280 C.3   217  LEU217      0.1596
     23  C         27.5450   16.9770    2.1070 C.2   217  LEU217      0.2287
     24  O         27.8070   18.1670    2.1810 O.2   217  LEU217     -0.2864
     25  CB        29.3980   15.3290    2.2970 C.3   217  LEU217      0.0297
     26  CG        30.4820   14.7070    3.1720 C.3   217  LEU217      0.0022
     27  CD1       31.4820   13.9380    2.2990 C.3   217  LEU217      0.0001
     28  CD2       31.1890   15.7890    3.9590 C.3   217  LEU217      0.0001
     29  N         25.6900   19.7820    3.9690 N.3   220  ARG220     -0.1231
     30  CA        26.6420   20.7200    4.5660 C.3   220  ARG220      0.1694
     31  C         27.3420   21.6110    3.5670 C.2   220  ARG220      0.2592
     32  O         27.5300   22.7990    3.8030 O.2   220  ARG220     -0.2718
     33  CB        27.7430   19.9690    5.3230 C.3   220  ARG220      0.0321
     34  CG        27.3360   19.3250    6.6170 C.3   220  ARG220      0.0489
     35  CD        27.5050   20.2540    7.8090 C.3   220  ARG220      0.2205
     36  NE        27.9860   19.4820    8.9530 N.pl3 220  ARG220     -0.0865
     37  CZ        27.2860   18.5180    9.5430 C.cat 220  ARG220      0.5346
     38  NH1       26.0670   18.2140    9.1050 N.pl3 220  ARG220      0.1354
     39  NH2       27.8120   17.8360   10.5540 N.pl3 220  ARG220      0.1354
     40  N         27.7540   21.0110    2.4630 N.am  221  PHE221     -0.1976
     41  CA        28.4970   21.7140    1.4240 C.3   221  PHE221      0.1639
     42  C         27.7050   21.7600    0.1240 C.2   221  PHE221      0.2290
     43  O         28.1710   21.2690   -0.8990 O.2   221  PHE221     -0.2864
     44  CB        29.8170   20.9730    1.1930 C.3   221  PHE221      0.0560
     45  CG        30.6070   20.7300    2.4510 C.ar  221  PHE221     -0.0200
     46  CD1       31.4470   19.6210    2.5600 C.ar  221  PHE221     -0.0042
     47  CD2       30.5470   21.6370    3.5080 C.ar  221  PHE221     -0.0042
     48  CE1       32.2220   19.4250    3.7070 C.ar  221  PHE221     -0.0003
     49  CE2       31.3080   21.4560    4.6520 C.ar  221  PHE221     -0.0003
     50  CZ        32.1510   20.3470    4.7560 C.ar  221  PHE221     -0.0000
     51  N         36.8190   10.2720    3.7270 N.3   236  LEU236     -0.1245
     52  CA        36.0730   10.1690    4.9700 C.3   236  LEU236      0.1561
     53  C         35.8440    8.6960    5.2980 C.2   236  LEU236      0.2260
     54  O         35.8360    8.3040    6.4640 O.2   236  LEU236     -0.2867
     55  CB        34.7260   10.8690    4.8310 C.3   236  LEU236      0.0270
     56  CG        34.1420   11.6510    6.0170 C.3   236  LEU236      0.0019
     57  CD1       32.6550   11.3700    6.0760 C.3   236  LEU236      0.0001
     58  CD2       34.8020   11.2710    7.3340 C.3   236  LEU236      0.0001
     59  N         39.0320    7.2440    6.6960 N.3   239  VAL239     -0.1231
     60  CA        39.2410    7.7610    8.0310 C.3   239  VAL239      0.1692
     61  C         38.4010    6.9580    9.0260 C.2   239  VAL239      0.2592
     62  O         38.9090    6.5350   10.0570 O.2   239  VAL239     -0.2718
     63  CB        38.8710    9.2770    8.1160 C.3   239  VAL239      0.0266
     64  CG1       38.9030    9.7490    9.5590 C.3   239  VAL239      0.0020
     65  CG2       39.8440   10.0880    7.2810 C.3   239  VAL239      0.0020
     66  N         37.1300    6.7250    8.7170 N.am  240  HIS240     -0.1976
     67  CA        36.2860    5.9760    9.6370 C.3   240  HIS240      0.1656
     68  C         36.7610    4.5470    9.8570 C.2   240  HIS240      0.2291
     69  O         36.6890    4.0350   10.9640 O.2   240  HIS240     -0.2864
     70  CB        34.8300    6.0000    9.1700 C.3   240  HIS240      0.0771
     71  CG        34.1190    7.2680    9.5210 C.ar  240  HIS240      0.0820
     72  ND1       33.1790    7.3420   10.5250 N.ar  240  HIS240     -0.2267
     73  CD2       34.2560    8.5280    9.0430 C.ar  240  HIS240      0.1154
     74  CE1       32.7670    8.5920   10.6530 C.ar  240  HIS240      0.1986
     75  NE2       33.4060    9.3330    9.7650 N.ar  240  HIS240     -0.2212
     76  N         39.9460    4.7910   12.0860 N.3   243  CYS243     -0.1235
     77  CA        39.5550    5.2680   13.4120 C.3   243  CYS243      0.1677
     78  C         38.7000    4.2350   14.1530 C.2   243  CYS243      0.2270
     79  O         38.7080    4.1870   15.3770 O.2   243  CYS243     -0.2867
     80  CB        38.8160    6.6120   13.3220 C.3   243  CYS243      0.0956
     81  SG        39.8670    8.0020   12.7940 S.3   243  CYS243     -0.0801
     82  N         42.8510   12.0860   10.1200 N.3   255  ARG255     -0.1245
     83  CA        41.9700   13.2300   10.3660 C.3   255  ARG255      0.1563
     84  C         42.6700   14.5650   10.0650 C.2   255  ARG255      0.2260
     85  O         42.0840   15.4320    9.4170 O.2   255  ARG255     -0.2867
     86  CB        41.4390   13.2170   11.8090 C.3   255  ARG255      0.0307
     87  CG        40.4960   12.0500   12.0860 C.3   255  ARG255      0.0489
     88  CD        39.8620   12.1160   13.4590 C.3   255  ARG255      0.2205
     89  NE        39.3590   13.4510   13.7580 N.pl3 255  ARG255     -0.0865
     90  CZ        38.2650   13.7040   14.4750 C.cat 255  ARG255      0.5346
     91  NH1       37.5390   12.7070   14.9710 N.pl3 255  ARG255      0.1354
     92  NH2       37.9040   14.9570   14.7150 N.pl3 255  ARG255      0.1354
     93  N         42.9710   15.1410    6.3320 N.3   258  LEU258     -0.1231
     94  CA        41.6890   15.5110    5.7400 C.3   258  LEU258      0.1693
     95  C         41.2890   16.9680    5.9950 C.2   258  LEU258      0.2591
     96  O         40.8760   17.6850    5.0770 O.2   258  LEU258     -0.2718
     97  CB        40.5850   14.5860    6.2580 C.3   258  LEU258      0.0284
     98  CG        39.1890   14.7520    5.6520 C.3   258  LEU258      0.0019
     99  CD1       39.2680   14.8960    4.1280 C.3   258  LEU258      0.0001
    100  CD2       38.3540   13.5440    6.0370 C.3   258  LEU258      0.0001
    101  N         41.3930   17.4030    7.2410 N.am  259  ALA259     -0.1980
    102  CA        41.0320   18.7710    7.5720 C.3   259  ALA259      0.1597
    103  C         41.9460   19.7380    6.8150 C.2   259  ALA259      0.2287
    104  O         41.5040   20.7940    6.3590 O.2   259  ALA259     -0.2864
    105  CB        41.1420   18.9890    9.0800 C.3   259  ALA259      0.0319
    106  N         40.6920   19.9040    3.2090 N.3   262  ILE262     -0.1245
    107  CA        39.4930   20.7120    3.1690 C.3   262  ILE262      0.1561
    108  C         39.7900   22.2130    3.3250 C.2   262  ILE262      0.2260
    109  O         39.1940   23.0440    2.6350 O.2   262  ILE262     -0.2867
    110  CB        38.4960   20.2240    4.2430 C.3   262  ILE262      0.0252
    111  CG1       37.9830   18.8290    3.8620 C.3   262  ILE262      0.0019
    112  CG2       37.3490   21.2020    4.3930 C.3   262  ILE262      0.0019
    113  CD1       36.9910   18.2510    4.8380 C.3   262  ILE262      0.0001
    114  N         39.8440   19.4850   12.6010 N.3   285  SER285     -0.1217
    115  CA        38.8880   18.4950   12.1230 C.3   285  SER285      0.1889
    116  C         37.6280   18.4660   12.9760 C.2   285  SER285      0.2288
    117  O         36.5230   18.3600   12.4550 O.2   285  SER285     -0.2866
    118  CB        39.5310   17.0950   12.0620 C.3   285  SER285      0.2089
    119  OG        39.5950   16.4680   13.3280 O.3   285  SER285     -0.2183
    120  N         35.5360   21.4240   11.9760 N.3   288  ILE288     -0.1231
    121  CA        34.9480   21.1980   10.6590 C.3   288  ILE288      0.1692
    122  C         33.7510   20.2330   10.7380 C.2   288  ILE288      0.2591
    123  O         32.6840   20.5040   10.1710 O.2   288  ILE288     -0.2718
    124  CB        36.0400   20.6790    9.6620 C.3   288  ILE288      0.0266
    125  CG1       37.0770   21.7870    9.4350 C.3   288  ILE288      0.0019
    126  CG2       35.4180   20.2700    8.3310 C.3   288  ILE288      0.0020
    127  CD1       38.2580   21.3830    8.6040 C.3   288  ILE288      0.0001
    128  N         33.9190   19.1280   11.4620 N.am  289  ALA289     -0.1980
    129  CA        32.8490   18.1340   11.6200 C.3   289  ALA289      0.1597
    130  C         31.5760   18.7000   12.2670 C.2   289  ALA289      0.2287
    131  O         30.4920   18.1220   12.1580 O.2   289  ALA289     -0.2864
    132  CB        33.3590   16.9510   12.4440 C.3   289  ALA289      0.0319
@<TRIPOS>BOND
     1    43    42    2
     2    42    41    1
     3    44    41    1
     4    44    45    1
     5    41    40    1
     6    23    24    2
     7    23    22    1
     8    25    22    1
     9    25    26    1
    10    27    26    1
    11    45    46   ar
    12    45    47   ar
    13    40    31   am
    14    46    48   ar
    15   109   108    2
    16    22    21    1
    17   107   106    1
    18   107   108    1
    19   107   110    1
    20    26    28    1
    21    47    49   ar
    22    21    12   am
    23    31    32    2
    24    31    30    1
    25    48    50   ar
    26    51    52    1
    27    10    11    1
    28   111   110    1
    29   111   113    1
    30    29    30    1
    31    99    98    1
    32   110   112    1
    33    12    13    2
    34    12    11    1
    35    30    33    1
    36    49    50   ar
    37    11    14    1
    38    55    52    1
    39    55    56    1
    40    52    53    1
    41    96    95    2
    42    53    54    2
    43    33    34    1
    44    98   100    1
    45    98    97    1
    46    94    95    1
    47    94    97    1
    48    94    93    1
    49    14    15    1
    50    95   101   am
    51    56    57    1
    52    56    58    1
    53   104   103    2
    54    34    35    1
    55    59    60    1
    56   103   102    1
    57    15    16    1
    58   101   102    1
    59    65    63    1
    60   102   105    1
    61    16    17    1
    62    35    36    1
    63    60    63    1
    64    60    61    1
    65    63    64    1
    66   126   124    1
    67   127   125    1
    68    66    61   am
    69    66    67    1
    70    36    37    2
    71    17    18    2
    72    61    62    2
    73    73    71   ar
    74    73    75   ar
    75    38    37    1
    76    70    71    1
    77    70    67    1
    78    85    84    2
    79   125   124    1
    80    71    72   ar
    81    37    39    1
    82    67    68    1
    83   124   121    1
    84    75    74   ar
    85    68    69    2
    86    19    18    1
    87    18    20    1
    88    84    83    1
    89    82    83    1
    90   123   122    2
    91    83    86    1
    92    72    74   ar
    93   121   122    1
    94   121   120    1
    95   122   128   am
    96   128   129    1
    97   129   130    1
    98   129   132    1
    99     4     3    2
   100    86    87    1
   101   118   115    1
   102   118   119    1
   103    87    88    1
   104    76    77    1
   105   115   114    1
   106   115   116    1
   107   131   130    2
   108   117   116    2
   109     7     6    1
   110     7     8    1
   111    81    80    1
   112     3     2    1
   113     5     6    1
   114     5     2    1
   115     2     1    1
   116    80    77    1
   117    77    78    1
   118    88    89    1
   119    89    90    2
   120     8     9    1
   121    78    79    2
   122    90    92    1
   123    90    91    1
