@<TRIPOS>MOLECULE
tmp/1gnjA02.pdb
 200 187 0 0 0
SMALL
GASTEIGER

@<TRIPOS>ATOM
      1  N         16.1620   14.4140    7.1020 N.3   340  SER340     -0.1217
      2  CA        17.0960   13.6020    7.8730 C.3   340  SER340      0.1889
      3  C         17.8550   12.8140    6.7920 C.2   340  SER340      0.2288
      4  O         17.3400   12.6140    5.6900 O.2   340  SER340     -0.2866
      5  CB        16.3420   12.6520    8.8120 C.3   340  SER340      0.2089
      6  OG        15.5840   11.7040    8.0850 O.3   340  SER340     -0.2183
      7  N         18.6620    9.5930    6.6070 N.3   342  VAL342     -0.1231
      8  CA        18.0100    8.3320    6.2920 C.3   342  VAL342      0.1692
      9  C         16.8080    8.5300    5.3190 C.2   342  VAL342      0.2591
     10  O         16.5940    7.7160    4.4170 O.2   342  VAL342     -0.2718
     11  CB        17.6240    7.5830    7.6300 C.3   342  VAL342      0.0266
     12  CG1       16.8590    8.5190    8.5570 C.3   342  VAL342      0.0020
     13  CG2       16.8100    6.3370    7.3410 C.3   342  VAL342      0.0020
     14  N         16.0470    9.6120    5.4820 N.am  343  LEU343     -0.1980
     15  CA        14.9340    9.9070    4.5800 C.3   343  LEU343      0.1596
     16  C         15.4970   10.0370    3.1650 C.2   343  LEU343      0.2287
     17  O         14.9480    9.4970    2.2040 O.2   343  LEU343     -0.2864
     18  CB        14.2290   11.2230    4.9760 C.3   343  LEU343      0.0297
     19  CG        13.1790   11.7990    3.9950 C.3   343  LEU343      0.0022
     20  CD1       12.0740   10.7700    3.7340 C.3   343  LEU343      0.0001
     21  CD2       12.5640   13.0700    4.5510 C.3   343  LEU343      0.0001
     22  N         16.1960    6.7390    1.8550 N.3   346  ARG346     -0.1245
     23  CA        14.9840    6.0430    1.4330 C.3   346  ARG346      0.1563
     24  C         14.5160    6.5140    0.0520 C.2   346  ARG346      0.2260
     25  O         13.9280    5.7390   -0.7040 O.2   346  ARG346     -0.2867
     26  CB        13.8460    6.2680    2.4140 C.3   346  ARG346      0.0307
     27  CG        13.9790    5.5230    3.6820 C.3   346  ARG346      0.0489
     28  CD        12.8520    5.8780    4.6190 C.3   346  ARG346      0.2205
     29  NE        13.3130    5.7580    5.9920 N.pl3 346  ARG346     -0.0865
     30  CZ        13.0980    6.6690    6.9270 C.cat 346  ARG346      0.5346
     31  NH1       12.4180    7.7680    6.6390 N.pl3 346  ARG346      0.1354
     32  NH2       13.5970    6.4920    8.1370 N.pl3 346  ARG346      0.1354
     33  N          7.4740   11.0150    8.1180 N.3   382  PRO382     -0.2116
     34  CA         8.2950   11.5820    9.1920 C.3   382  PRO382      0.1372
     35  C          7.8530   13.0030    9.5650 C.2   382  PRO382      0.2244
     36  O          7.7690   13.3570   10.7420 O.2   382  PRO382     -0.2868
     37  CB         9.7060   11.5390    8.6020 C.3   382  PRO382      0.0268
     38  CG         9.4490   11.7130    7.1410 C.3   382  PRO382      0.0207
     39  CD         8.2820   10.7970    6.9040 C.3   382  PRO382      0.0892
     40  N          4.9800   12.9310   11.8860 N.3   385  LEU385     -0.1231
     41  CA         5.2940   12.4110   13.2130 C.3   385  LEU385      0.1693
     42  C          5.8430   13.5330   14.0810 C.2   385  LEU385      0.2591
     43  O          5.4300   13.6930   15.2280 O.2   385  LEU385     -0.2718
     44  CB         6.3020   11.2640   13.1340 C.3   385  LEU385      0.0284
     45  CG         5.6390    9.9290   12.8010 C.3   385  LEU385      0.0019
     46  CD1        6.6430    8.7890   12.9350 C.3   385  LEU385      0.0001
     47  CD2        4.4700    9.7150   13.7500 C.3   385  LEU385      0.0001
     48  N          6.7690   14.3080   13.5210 N.am  386  ILE386     -0.1980
     49  CA         7.3650   15.4410   14.2210 C.3   386  ILE386      0.1595
     50  C          6.2770   16.4180   14.6810 C.2   386  ILE386      0.2287
     51  O          6.1790   16.7440   15.8710 O.2   386  ILE386     -0.2864
     52  CB         8.3150   16.2210   13.3130 C.3   386  ILE386      0.0276
     53  CG1        9.3960   15.3040   12.7660 C.3   386  ILE386      0.0022
     54  CG2        8.9400   17.3600   14.0800 C.3   386  ILE386      0.0022
     55  CD1       10.3670   14.8400   13.7880 C.3   386  ILE386      0.0001
     56  N          3.7830   14.9720   17.4100 N.3   389  ASN389     -0.1225
     57  CA         4.4610   14.8420   18.6840 C.3   389  ASN389      0.1785
     58  C          4.9400   16.1560   19.2820 C.2   389  ASN389      0.2597
     59  O          4.8890   16.3300   20.4950 O.2   389  ASN389     -0.2718
     60  CB         5.6040   13.8330   18.5750 C.3   389  ASN389      0.1169
     61  CG         5.1140   12.3950   18.7000 C.2   389  ASN389      0.2627
     62  OD1        4.6370   11.9730   19.7560 O.2   389  ASN389     -0.2716
     63  ND2        5.2180   11.6470   17.6210 N.am  389  ASN389     -0.0877
     64  N          5.3850   17.0910   18.4510 N.am  390  CYS390     -0.1970
     65  CA         5.8300   18.3650   18.9950 C.3   390  CYS390      0.1712
     66  C          4.6480   19.1860   19.4860 C.2   390  CYS390      0.2296
     67  O          4.7620   19.9520   20.4470 O.2   390  CYS390     -0.2864
     68  CB         6.6250   19.1540   17.9650 C.3   390  CYS390      0.0983
     69  SG         8.3690   18.6460   17.8370 S.3   390  CYS390     -0.0798
     70  N          4.4340   14.9050   29.1490 N.3   401  PHE401     -0.1241
     71  CA         4.6780   14.3630   27.8280 C.3   401  PHE401      0.1605
     72  C          5.3160   12.9910   27.9720 C.2   401  PHE401      0.2264
     73  O          5.0250   12.0680   27.1990 O.2   401  PHE401     -0.2867
     74  CB         5.6030   15.2960   27.0420 C.3   401  PHE401      0.0534
     75  CG         5.9280   14.8090   25.6550 C.ar  401  PHE401     -0.0203
     76  CD1        4.9170   14.6130   24.7150 C.ar  401  PHE401     -0.0042
     77  CD2        7.2480   14.5470   25.2910 C.ar  401  PHE401     -0.0042
     78  CE1        5.2160   14.1670   23.4330 C.ar  401  PHE401     -0.0003
     79  CE2        7.5600   14.1000   24.0110 C.ar  401  PHE401     -0.0003
     80  CZ         6.5400   13.9100   23.0780 C.ar  401  PHE401     -0.0000
     81  N          4.0650    9.1210   26.5580 N.3   405  LEU405     -0.1245
     82  CA         4.8830    8.1410   25.8560 C.3   405  LEU405      0.1561
     83  C          4.8590    6.8450   26.6540 C.2   405  LEU405      0.2260
     84  O          4.7930    5.7590   26.0860 O.2   405  LEU405     -0.2867
     85  CB         6.3320    8.6310   25.7140 C.3   405  LEU405      0.0270
     86  CG         6.6070    9.9190   24.9170 C.3   405  LEU405      0.0019
     87  CD1        8.1060   10.1090   24.7340 C.3   405  LEU405      0.0001
     88  CD2        5.9400    9.8410   23.5620 C.3   405  LEU405      0.0001
     89  N          1.6360    4.9680   25.9580 N.3   408  ARG408     -0.1231
     90  CA         1.7260    4.5650   24.5660 C.3   408  ARG408      0.1694
     91  C          2.6240    3.3550   24.2720 C.2   408  ARG408      0.2592
     92  O          2.2060    2.4090   23.5990 O.2   408  ARG408     -0.2718
     93  CB         2.1950    5.7650   23.7430 C.3   408  ARG408      0.0321
     94  CG         2.0050    5.6180   22.2530 C.3   408  ARG408      0.0489
     95  CD         2.0250    6.9740   21.5700 C.3   408  ARG408      0.2205
     96  NE         3.3780    7.3670   21.2030 N.pl3 408  ARG408     -0.0865
     97  CZ         3.7460    8.6120   20.9150 C.cat 408  ARG408      0.5346
     98  NH1        2.8590    9.6000   20.9560 N.pl3 408  ARG408      0.1354
     99  NH2        5.0050    8.8660   20.5750 N.pl3 408  ARG408      0.1354
    100  N          3.8510    3.3760   24.7730 N.am  409  TYR409     -0.1976
    101  CA         4.7750    2.2850   24.5020 C.3   409  TYR409      0.1639
    102  C          4.6290    1.0420   25.3880 C.2   409  TYR409      0.2290
    103  O          5.0040   -0.0650   24.9950 O.2   409  TYR409     -0.2864
    104  CB         6.2110    2.8270   24.5440 C.3   409  TYR409      0.0560
    105  CG         6.4520    3.8890   23.4960 C.ar  409  TYR409     -0.0198
    106  CD1        6.2460    3.6100   22.1370 C.ar  409  TYR409     -0.0009
    107  CD2        6.8420    5.1840   23.8530 C.ar  409  TYR409     -0.0009
    108  CE1        6.4160    4.5940   21.1600 C.ar  409  TYR409      0.0417
    109  CE2        7.0190    6.1770   22.8820 C.ar  409  TYR409      0.0417
    110  CZ         6.8020    5.8730   21.5370 C.ar  409  TYR409      0.1957
    111  OH         6.9660    6.8390   20.5680 O.3   409  TYR409     -0.2866
    112  N         13.2080   10.0040   25.4030 N.3   428  LEU428     -0.1245
    113  CA        12.3930   10.4100   24.2760 C.3   428  LEU428      0.1561
    114  C         11.8710   11.8000   24.6110 C.2   428  LEU428      0.2260
    115  O         11.8560   12.6910   23.7650 O.2   428  LEU428     -0.2867
    116  CB        11.2400    9.4210   24.0890 C.3   428  LEU428      0.0270
    117  CG        11.2590    8.5860   22.8040 C.3   428  LEU428      0.0019
    118  CD1       12.6810    8.2970   22.3640 C.3   428  LEU428      0.0001
    119  CD2       10.4830    7.3070   23.0440 C.3   428  LEU428      0.0001
    120  N         14.5420   14.4350   24.0320 N.3   431  VAL431     -0.1231
    121  CA        14.6410   14.7350   22.6120 C.3   431  VAL431      0.1692
    122  C         13.5050   15.6630   22.2270 C.2   431  VAL431      0.2592
    123  O         13.6630   16.5270   21.3730 O.2   431  VAL431     -0.2718
    124  CB        14.5460   13.4570   21.7650 C.3   431  VAL431      0.0266
    125  CG1       14.6340   13.7940   20.2640 C.3   431  VAL431      0.0020
    126  CG2       15.6540   12.5080   22.1660 C.3   431  VAL431      0.0020
    127  N         12.3580   15.4810   22.8710 N.am  432  GLY432     -0.1957
    128  CA        11.2130   16.3230   22.5860 C.3   432  GLY432      0.1869
    129  C         11.4660   17.7930   22.8830 C.2   432  GLY432      0.2309
    130  O         11.1820   18.6600   22.0550 O.2   432  GLY432     -0.2863
    131  N         14.5460   19.1600   20.4350 N.3   435  CYS435     -0.1221
    132  CA        14.2550   19.4440   19.0410 C.3   435  CYS435      0.1808
    133  C         12.9990   20.2260   18.7100 C.2   435  CYS435      0.2601
    134  O         12.9550   20.9080   17.6890 O.2   435  CYS435     -0.2717
    135  CB        14.2280   18.1340   18.2550 C.3   435  CYS435      0.0970
    136  SG        15.7430   17.1220   18.2980 S.3   435  CYS435     -0.0800
    137  N         11.9700   20.1260   19.5410 N.am  436  CYS436     -0.1970
    138  CA        10.7380   20.8470   19.2420 C.3   436  CYS436      0.1712
    139  C         10.8510   22.3650   19.3810 C.2   436  CYS436      0.2296
    140  O          9.9510   23.0920   18.9830 O.2   436  CYS436     -0.2864
    141  CB         9.5840   20.3310   20.1020 C.3   436  CYS436      0.0983
    142  SG         9.0510   18.6210   19.7540 S.3   436  CYS436     -0.0798
    143  N         13.9530   20.5550   12.4830 N.3   443  ARG443     -0.1231
    144  CA        13.4370   19.5070   13.3360 C.3   443  ARG443      0.1694
    145  C         13.8370   18.0890   12.9490 C.2   443  ARG443      0.2591
    146  O         14.3420   17.3470   13.7850 O.2   443  ARG443     -0.2718
    147  CB        11.9220   19.6090   13.4240 C.3   443  ARG443      0.0321
    148  CG        11.4650   20.7480   14.2970 C.3   443  ARG443      0.0489
    149  CD         9.9480   20.8490   14.3180 C.3   443  ARG443      0.2205
    150  NE         9.4830   21.8690   15.2570 N.pl3 443  ARG443     -0.0865
    151  CZ         8.2060   22.1030   15.5350 C.cat 443  ARG443      0.5346
    152  NH1        7.2580   21.3900   14.9400 N.pl3 443  ARG443      0.1354
    153  NH2        7.8800   23.0360   16.4250 N.pl3 443  ARG443      0.1354
    154  N         13.6400   17.7110   11.6920 N.am  444  MET444     -0.1979
    155  CA        13.9680   16.3540   11.2830 C.3   444  MET444      0.1605
    156  C         15.4310   15.9980   11.4600 C.2   444  MET444      0.2287
    157  O         15.7570   14.9190   11.9400 O.2   444  MET444     -0.2864
    158  CB        13.5400   16.0990    9.8350 C.3   444  MET444      0.0413
    159  CG        12.9840   14.7000    9.6390 C.3   444  MET444      0.0598
    160  SD        12.5480   14.3140    7.9510 S.3   444  MET444     -0.1393
    161  CE        11.1660   15.4430    7.7580 C.3   444  MET444      0.0692
    162  N         15.9980   15.3770   15.3550 N.3   447  ALA447     -0.1231
    163  CA        15.4350   14.1410   15.8690 C.3   447  ALA447      0.1694
    164  C         16.2550   12.9420   15.4140 C.2   447  ALA447      0.2591
    165  O         16.5280   12.0420   16.1970 O.2   447  ALA447     -0.2718
    166  CB        13.9930   13.9950   15.4110 C.3   447  ALA447      0.0304
    167  N         16.6440   12.9340   14.1450 N.am  448  GLU448     -0.1979
    168  CA        17.4350   11.8410   13.6270 C.3   448  GLU448      0.1602
    169  C         18.6850   11.6510   14.4660 C.2   448  GLU448      0.2287
    170  O         18.9610   10.5610   14.9500 O.2   448  GLU448     -0.2864
    171  CB        17.8300   12.1000   12.1750 C.3   448  GLU448      0.0415
    172  CG        18.8050   11.0780   11.6460 C.3   448  GLU448      0.1163
    173  CD        19.1990   11.3010   10.2110 C.2   448  GLU448      0.3649
    174  OE1       19.5600   12.4450    9.8670 O.co2 448  GLU448     -0.2457
    175  OE2       19.1690   10.3280    9.4260 O.co2 448  GLU448     -0.2457
    176  N         17.5390   10.4160   18.0880 N.3   451  LEU451     -0.1245
    177  CA        16.7990    9.1720   18.0000 C.3   451  LEU451      0.1561
    178  C         17.6330    8.0010   17.5270 C.2   451  LEU451      0.2260
    179  O         17.2960    6.8600   17.8030 O.2   451  LEU451     -0.2867
    180  CB        15.5920    9.3430   17.0850 C.3   451  LEU451      0.0270
    181  CG        14.2390    9.5630   17.7570 C.3   451  LEU451      0.0019
    182  CD1       14.4130   10.3780   19.0080 C.3   451  LEU451      0.0001
    183  CD2       13.2940   10.2510   16.7920 C.3   451  LEU451      0.0001
    184  N         13.6120    2.9000   12.0800 N.3   483  ARG483     -0.1245
    185  CA        12.6350    3.7980   12.6970 C.3   483  ARG483      0.1563
    186  C         11.2110    3.5670   12.1660 C.2   483  ARG483      0.2260
    187  O         10.2560    3.5000   12.9400 O.2   483  ARG483     -0.2867
    188  CB        13.0800    5.2650   12.5100 C.3   483  ARG483      0.0307
    189  CG        12.4040    6.2790   13.4270 C.3   483  ARG483      0.0489
    190  CD        10.9890    6.6210   12.9550 C.3   483  ARG483      0.2205
    191  NE        11.0180    7.2450   11.6350 N.pl3 483  ARG483     -0.0865
    192  CZ        10.0540    7.1430   10.7340 C.cat 483  ARG483      0.5346
    193  NH1        8.9700    6.4380   11.0080 N.pl3 483  ARG483      0.1354
    194  NH2       10.1840    7.7350    9.5520 N.pl3 483  ARG483      0.1354
    195  N          7.9220    2.6450   14.3130 N.3   487  SER487     -0.1217
    196  CA         6.7380    3.4910   14.2520 C.3   487  SER487      0.1889
    197  C          5.4940    2.6720   13.9300 C.2   487  SER487      0.2288
    198  O          4.3890    3.0370   14.3280 O.2   487  SER487     -0.2866
    199  CB         6.9180    4.5740   13.1920 C.3   487  SER487      0.2089
    200  OG         7.9150    5.4990   13.5740 O.3   487  SER487     -0.2183
@<TRIPOS>BOND
     1    25    24    2
     2    24    23    1
     3    23    22    1
     4    23    26    1
     5    17    16    2
     6    26    27    1
     7    16    15    1
     8    27    28    1
     9    20    19    1
    10    19    21    1
    11    19    18    1
    12    10     9    2
    13    15    18    1
    14    15    14    1
    15    28    29    1
    16     9    14   am
    17     9     8    1
    18     4     3    2
    19    29    30    2
    20     8     7    1
    21     8    11    1
    22    31    30    1
    23     3     2    1
    24    39    38    1
    25    39    33    1
    26    30    32    1
    27     1     2    1
    28    38    37    1
    29    13    11    1
    30    11    12    1
    31   161   160    1
    32     2     5    1
    33   160   159    1
    34     6     5    1
    35    33    34    1
    36    37    34    1
    37    34    35    1
    38   175   173   ar
    39   194   192    1
    40    35    36    2
    41   159   158    1
    42   158   155    1
    43   174   173   ar
    44   173   172    1
    45   192   193    1
    46   192   191    2
    47   155   156    1
    48   155   154    1
    49   156   157    2
    50   191   190    1
    51   172   171    1
    52   154   145   am
    53    40    41    1
    54   184   185    1
    55   186   185    1
    56   186   187    2
    57   171   168    1
    58   143   144    1
    59   188   185    1
    60   188   189    1
    61    53    52    1
    62    53    55    1
    63    45    46    1
    64    45    44    1
    65    45    47    1
    66   145   144    1
    67   145   146    2
    68   190   189    1
    69    44    41    1
    70   199   200    1
    71   199   196    1
    72    41    42    1
    73    52    54    1
    74    52    49    1
    75   144   147    1
    76   147   148    1
    77    48    42   am
    78    48    49    1
    79   168   167    1
    80   168   169    1
    81   197   196    1
    82   197   198    2
    83    42    43    2
    84   167   164   am
    85    49    50    1
    86   196   195    1
    87   148   149    1
    88   149   150    1
    89   169   170    2
    90    50    51    2
    91   152   151    1
    92   150   151    2
    93   162   163    1
    94   166   163    1
    95   164   163    1
    96   164   165    2
    97   151   153    1
    98   183   181    1
    99   180   181    1
   100   180   177    1
   101    56    57    1
   102   178   179    2
   103   178   177    1
   104    63    61   am
   105   134   133    2
   106   181   182    1
   107    69    68    1
   108    69   142    1
   109    68    65    1
   110   177   176    1
   111   135   136    1
   112   135   132    1
   113    64    65    1
   114    64    58   am
   115    60    57    1
   116    60    61    1
   117    57    58    1
   118    61    62    2
   119   133   132    1
   120   133   137   am
   121   140   139    2
   122    65    66    1
   123   132   131    1
   124   138   139    1
   125   138   137    1
   126   138   141    1
   127    58    59    2
   128    66    67    2
   129   142   141    1
   130   125   124    1
   131   111   110    1
   132    99    97    1
   133    97    98    1
   134    97    96    2
   135   108   110   ar
   136   108   106   ar
   137    96    95    1
   138   123   122    2
   139   110   109   ar
   140    95    94    1
   141   124   126    1
   142   124   121    1
   143   130   129    2
   144   106   105   ar
   145   122   121    1
   146   122   127   am
   147    94    93    1
   148   118   117    1
   149   128   127    1
   150   128   129    1
   151   121   120    1
   152   117   119    1
   153   117   116    1
   154   109   107   ar
   155    80    78   ar
   156    80    79   ar
   157    78    76   ar
   158   105   107   ar
   159   105   104    1
   160    88    86    1
   161    92    91    2
   162    93    90    1
   163   115   114    2
   164    79    77   ar
   165   116   113    1
   166    91    90    1
   167    91   100   am
   168   113   114    1
   169   113   112    1
   170   101   104    1
   171   101   100    1
   172   101   102    1
   173    90    89    1
   174    76    75   ar
   175    87    86    1
   176    86    85    1
   177   103   102    2
   178    77    75   ar
   179    75    74    1
   180    85    82    1
   181    82    81    1
   182    82    83    1
   183    84    83    2
   184    74    71    1
   185    73    72    2
   186    71    72    1
   187    71    70    1
