@<TRIPOS>MOLECULE
tmp/1gnjA00.pdb
 202 195 0 0 0
SMALL
GASTEIGER

@<TRIPOS>ATOM
      1  N         31.8940    5.4160   38.2940 N.3   113  LEU113     -0.1231
      2  CA        32.3580    6.6740   38.8690 C.3   113  LEU113      0.1693
      3  C         31.2160    7.4320   39.5450 C.2   113  LEU113      0.2592
      4  O         30.2120    7.7490   38.9090 O.2   113  LEU113     -0.2718
      5  CB        32.9550    7.5270   37.7570 C.3   113  LEU113      0.0284
      6  CG        34.2030    8.3610   38.0340 C.3   113  LEU113      0.0019
      7  CD1       35.3210    7.4790   38.6220 C.3   113  LEU113      0.0001
      8  CD2       34.6540    9.0020   36.7170 C.3   113  LEU113      0.0001
      9  N         31.3600    7.7250   40.8320 N.am  114  VAL114     -0.1966
     10  CA        30.3110    8.4520   41.5410 C.3   114  VAL114      0.1727
     11  C         30.6740    9.9240   41.6270 C.2   114  VAL114      0.2616
     12  O         31.8430   10.2760   41.7780 O.2   114  VAL114     -0.2715
     13  CB        30.1140    7.9210   42.9700 C.3   114  VAL114      0.0290
     14  CG1       29.9600    6.4060   42.9400 C.3   114  VAL114      0.0023
     15  CG2       31.2900    8.3360   43.8480 C.3   114  VAL114      0.0023
     16  N         29.6710   10.7840   41.5360 N.am  115  ARG115     -0.1964
     17  CA        29.9050   12.2170   41.5960 C.3   115  ARG115      0.1714
     18  C         29.9030   12.7100   43.0450 C.2   115  ARG115      0.2458
     19  O         28.8920   12.6030   43.7420 O.2   115  ARG115     -0.2730
     20  CB        28.8280   12.9460   40.7780 C.3   115  ARG115      0.0347
     21  CG        28.9490   14.4650   40.7690 C.3   115  ARG115      0.0492
     22  CD        27.7040   15.1290   40.1900 C.3   115  ARG115      0.2205
     23  NE        27.6290   15.0040   38.7360 N.pl3 115  ARG115     -0.0865
     24  CZ        26.6200   15.4550   37.9940 C.cat 115  ARG115      0.5346
     25  NH1       25.5910   16.0640   38.5700 N.pl3 115  ARG115      0.1354
     26  NH2       26.6370   15.2940   36.6770 N.pl3 115  ARG115      0.1354
     27  N         31.0450   13.2410   43.5250 N.am  116  PRO116     -0.2727
     28  CA        31.1310   13.7440   44.8990 C.3   116  PRO116      0.1402
     29  C         30.3470   15.0350   45.0430 C.2   116  PRO116      0.2269
     30  O         29.7900   15.5340   44.0700 O.2   116  PRO116     -0.2865
     31  CB        32.6230   13.9520   45.0970 C.3   116  PRO116      0.0296
     32  CG        33.0870   14.3050   43.7530 C.3   116  PRO116      0.0237
     33  CD        32.3550   13.3410   42.8600 C.3   116  PRO116      0.0939
     34  N         34.2780   18.8170   45.5150 N.3   121  MET121     -0.1245
     35  CA        34.8200   19.0120   44.1720 C.3   121  MET121      0.1570
     36  C         35.4920   20.3700   44.0370 C.2   121  MET121      0.2261
     37  O         36.6420   20.4670   43.5980 O.2   121  MET121     -0.2867
     38  CB        33.7230   18.9370   43.1250 C.3   121  MET121      0.0387
     39  CG        33.0430   17.6130   43.0080 C.3   121  MET121      0.0595
     40  SD        31.9890   17.6250   41.5520 S.3   121  MET121     -0.1393
     41  CE        33.0950   16.8440   40.3900 C.3   121  MET121      0.0692
     42  N         43.5510   17.3130   39.8710 N.3   132  PHE132     -0.1227
     43  CA        42.1080   17.1380   39.9570 C.3   132  PHE132      0.1736
     44  C         41.5260   16.8080   38.5760 C.2   132  PHE132      0.2595
     45  O         40.7660   15.8540   38.4230 O.2   132  PHE132     -0.2718
     46  CB        41.4480   18.4080   40.5030 C.3   132  PHE132      0.0547
     47  CG        39.9570   18.3300   40.5520 C.ar  132  PHE132     -0.0202
     48  CD1       39.3180   17.6270   41.5660 C.ar  132  PHE132     -0.0042
     49  CD2       39.1850   18.9140   39.5500 C.ar  132  PHE132     -0.0042
     50  CE1       37.9220   17.5030   41.5790 C.ar  132  PHE132     -0.0003
     51  CE2       37.7950   18.7960   39.5510 C.ar  132  PHE132     -0.0003
     52  CZ        37.1590   18.0880   40.5690 C.ar  132  PHE132     -0.0000
     53  N         41.8870   17.6020   37.5740 N.am  133  LEU133     -0.1980
     54  CA        41.3940   17.3780   36.2230 C.3   133  LEU133      0.1596
     55  C         42.0670   16.1810   35.5650 C.2   133  LEU133      0.2287
     56  O         41.4530   15.4810   34.7660 O.2   133  LEU133     -0.2864
     57  CB        41.6090   18.6270   35.3640 C.3   133  LEU133      0.0297
     58  CG        40.8360   19.8730   35.8110 C.3   133  LEU133      0.0022
     59  CD1       41.3440   21.1130   35.0630 C.3   133  LEU133      0.0001
     60  CD2       39.3570   19.6670   35.5760 C.3   133  LEU133      0.0001
     61  N         40.5840   12.6610   36.8460 N.3   136  TYR136     -0.1227
     62  CA        39.2830   12.3570   36.2590 C.3   136  TYR136      0.1736
     63  C         39.4130   12.0340   34.7800 C.2   136  TYR136      0.2595
     64  O         38.7130   11.1700   34.2440 O.2   136  TYR136     -0.2718
     65  CB        38.3350   13.5360   36.4350 C.3   136  TYR136      0.0548
     66  CG        37.5910   13.4970   37.7380 C.ar  136  TYR136     -0.0200
     67  CD1       36.5280   12.6130   37.9230 C.ar  136  TYR136     -0.0009
     68  CD2       37.9710   14.3130   38.8090 C.ar  136  TYR136     -0.0009
     69  CE1       35.8570   12.5370   39.1460 C.ar  136  TYR136      0.0417
     70  CE2       37.3060   14.2460   40.0380 C.ar  136  TYR136      0.0417
     71  CZ        36.2510   13.3530   40.1960 C.ar  136  TYR136      0.1957
     72  OH        35.5950   13.2680   41.4010 O.3   136  TYR136     -0.2866
     73  N         40.3130   12.7470   34.1240 N.am  137  LEU137     -0.1980
     74  CA        40.5690   12.5350   32.7180 C.3   137  LEU137      0.1596
     75  C         41.0460   11.0830   32.6080 C.2   137  LEU137      0.2287
     76  O         40.7040   10.3540   31.6760 O.2   137  LEU137     -0.2864
     77  CB        41.6480   13.5140   32.2780 C.3   137  LEU137      0.0297
     78  CG        41.9910   13.6140   30.8080 C.3   137  LEU137      0.0022
     79  CD1       40.7270   13.7620   29.9860 C.3   137  LEU137      0.0001
     80  CD2       42.9040   14.7930   30.6180 C.3   137  LEU137      0.0001
     81  N         38.0100    8.7140   33.2030 N.3   140  ILE140     -0.1245
     82  CA        37.1340    8.6840   32.0510 C.3   140  ILE140      0.1561
     83  C         37.7450    7.9460   30.8670 C.2   140  ILE140      0.2260
     84  O         37.0700    7.1520   30.2210 O.2   140  ILE140     -0.2867
     85  CB        36.7340   10.1190   31.6300 C.3   140  ILE140      0.0252
     86  CG1       35.9020   10.7570   32.7500 C.3   140  ILE140      0.0019
     87  CG2       35.9260   10.1020   30.3360 C.3   140  ILE140      0.0019
     88  CD1       34.6520    9.9690   33.1240 C.3   140  ILE140      0.0001
     89  N         36.5340    4.6360   28.7260 N.3   144  HIS144     -0.1241
     90  CA        36.1220    4.8250   27.3320 C.3   144  HIS144      0.1621
     91  C         37.3700    4.7940   26.4600 C.2   144  HIS144      0.2264
     92  O         37.8280    5.8110   25.9700 O.2   144  HIS144     -0.2867
     93  CB        35.3830    6.1550   27.1650 C.3   144  HIS144      0.0745
     94  CG        34.1110    6.2340   27.9500 C.ar  144  HIS144      0.0817
     95  ND1       34.0830    6.5470   29.2910 N.ar  144  HIS144     -0.2268
     96  CD2       32.8290    5.9870   27.5950 C.ar  144  HIS144      0.1154
     97  CE1       32.8380    6.4910   29.7290 C.ar  144  HIS144      0.1986
     98  NE2       32.0580    6.1530   28.7190 N.ar  144  HIS144     -0.2212
     99  N         37.1870    6.3540   22.8020 N.3   147  PHE147     -0.1241
    100  CA        36.8090    7.7460   22.6610 C.3   147  PHE147      0.1605
    101  C         38.0050    8.5000   22.0770 C.2   147  PHE147      0.2264
    102  O         39.1000    8.4680   22.6420 O.2   147  PHE147     -0.2867
    103  CB        36.4420    8.2970   24.0290 C.3   147  PHE147      0.0534
    104  CG        35.5480    9.4870   23.9780 C.ar  147  PHE147     -0.0203
    105  CD1       34.2300    9.3940   24.4070 C.ar  147  PHE147     -0.0042
    106  CD2       36.0240   10.7130   23.5270 C.ar  147  PHE147     -0.0042
    107  CE1       33.3970   10.5110   24.3910 C.ar  147  PHE147     -0.0003
    108  CE2       35.2030   11.8360   23.5050 C.ar  147  PHE147     -0.0003
    109  CZ        33.8890   11.7400   23.9370 C.ar  147  PHE147     -0.0000
    110  N         38.2180   13.9980   23.9090 N.3   152  LEU152     -0.1245
    111  CA        38.1340   13.7640   25.3340 C.3   152  LEU152      0.1561
    112  C         38.7500   14.9870   25.9880 C.2   152  LEU152      0.2260
    113  O         38.3240   15.4420   27.0480 O.2   152  LEU152     -0.2867
    114  CB        38.9250   12.5120   25.6790 C.3   152  LEU152      0.0270
    115  CG        38.4350   11.6940   26.8670 C.3   152  LEU152      0.0019
    116  CD1       36.9290   11.5320   26.7860 C.3   152  LEU152      0.0001
    117  CD2       39.1260   10.3360   26.8560 C.3   152  LEU152      0.0001
    118  N         36.4050   18.0770   25.9210 N.3   155  PHE155     -0.1227
    119  CA        35.4010   18.0150   26.9670 C.3   155  PHE155      0.1736
    120  C         35.9850   18.4730   28.2930 C.2   155  PHE155      0.2595
    121  O         35.3750   19.2650   29.0100 O.2   155  PHE155     -0.2718
    122  CB        34.8650   16.6010   27.1020 C.3   155  PHE155      0.0547
    123  CG        33.6810   16.3320   26.2350 C.ar  155  PHE155     -0.0202
    124  CD1       32.4390   16.8590   26.5610 C.ar  155  PHE155     -0.0042
    125  CD2       33.8140   15.5990   25.0550 C.ar  155  PHE155     -0.0042
    126  CE1       31.3460   16.6630   25.7200 C.ar  155  PHE155     -0.0003
    127  CE2       32.7280   15.3990   24.2070 C.ar  155  PHE155     -0.0003
    128  CZ        31.4930   15.9310   24.5380 C.ar  155  PHE155     -0.0000
    129  N         37.1770   17.9840   28.6110 N.am  156  ALA156     -0.1980
    130  CA        37.8410   18.3390   29.8560 C.3   156  ALA156      0.1597
    131  C         37.9200   19.8510   30.0290 C.2   156  ALA156      0.2287
    132  O         37.6210   20.3820   31.1070 O.2   156  ALA156     -0.2864
    133  CB        39.2230   17.7400   29.8870 C.3   156  ALA156      0.0319
    134  N         34.7900   21.3090   31.0820 N.3   159  TYR159     -0.1241
    135  CA        34.5610   20.9600   32.4750 C.3   159  TYR159      0.1605
    136  C         35.3170   21.9340   33.3890 C.2   159  TYR159      0.2264
    137  O         34.8080   22.3550   34.4320 O.2   159  TYR159     -0.2867
    138  CB        35.0200   19.5240   32.7260 C.3   159  TYR159      0.0534
    139  CG        33.9050   18.5090   32.6400 C.ar  159  TYR159     -0.0201
    140  CD1       32.9880   18.3660   33.6790 C.ar  159  TYR159     -0.0009
    141  CD2       33.7710   17.6830   31.5310 C.ar  159  TYR159     -0.0009
    142  CE1       31.9730   17.4160   33.6160 C.ar  159  TYR159      0.0417
    143  CE2       32.7500   16.7330   31.4580 C.ar  159  TYR159      0.0417
    144  CZ        31.8620   16.6030   32.5040 C.ar  159  TYR159      0.1957
    145  OH        30.8780   15.6460   32.4530 O.3   159  TYR159     -0.2866
    146  N         34.0710   24.7460   36.3370 N.3   163  PHE163     -0.1241
    147  CA        34.4940   24.8160   37.7270 C.3   163  PHE163      0.1605
    148  C         34.9740   26.2230   38.0440 C.2   163  PHE163      0.2264
    149  O         34.6570   26.7790   39.0920 O.2   163  PHE163     -0.2867
    150  CB        35.5650   23.7570   38.0120 C.3   163  PHE163      0.0534
    151  CG        34.9870   22.3860   38.2340 C.ar  163  PHE163     -0.0203
    152  CD1       34.3190   22.0870   39.4170 C.ar  163  PHE163     -0.0042
    153  CD2       35.0190   21.4240   37.2260 C.ar  163  PHE163     -0.0042
    154  CE1       33.6850   20.8560   39.5920 C.ar  163  PHE163     -0.0003
    155  CE2       34.3860   20.1870   37.3920 C.ar  163  PHE163     -0.0003
    156  CZ        33.7180   19.9030   38.5730 C.ar  163  PHE163     -0.0000
    157  N         27.0940   20.3500   34.8270 N.3   180  LEU180     -0.1245
    158  CA        27.6770   19.0290   34.8280 C.3   180  LEU180      0.1561
    159  C         26.7320   18.0380   34.1790 C.2   180  LEU180      0.2260
    160  O         27.1530   17.2110   33.3780 O.2   180  LEU180     -0.2867
    161  CB        28.0010   18.5830   36.2570 C.3   180  LEU180      0.0270
    162  CG        29.2360   19.1960   36.9210 C.3   180  LEU180      0.0019
    163  CD1       29.4720   18.5370   38.2690 C.3   180  LEU180      0.0001
    164  CD2       30.4430   18.9960   36.0370 C.3   180  LEU180      0.0001
    165  N         26.9140   18.4780   30.4780 N.3   183  LEU183     -0.1231
    166  CA        28.1730   17.9870   29.9530 C.3   183  LEU183      0.1693
    167  C         28.1690   16.4620   29.8720 C.2   183  LEU183      0.2591
    168  O         28.6940   15.8810   28.9240 O.2   183  LEU183     -0.2718
    169  CB        29.3180   18.4660   30.8380 C.3   183  LEU183      0.0284
    170  CG        30.2660   19.4890   30.2120 C.3   183  LEU183      0.0019
    171  CD1       29.5000   20.4710   29.3380 C.3   183  LEU183      0.0001
    172  CD2       31.0130   20.2130   31.3260 C.3   183  LEU183      0.0001
    173  N         27.5640   15.8120   30.8600 N.am  184  ARG184     -0.1980
    174  CA        27.5090   14.3610   30.8810 C.3   184  ARG184      0.1597
    175  C         26.7190   13.7890   29.6980 C.2   184  ARG184      0.2287
    176  O         27.2110   12.9150   28.9770 O.2   184  ARG184     -0.2864
    177  CB        26.8990   13.8750   32.1980 C.3   184  ARG184      0.0334
    178  CG        27.0060   12.3740   32.3980 C.3   184  ARG184      0.0492
    179  CD        26.1520   11.9010   33.5540 C.3   184  ARG184      0.2205
    180  NE        24.7430   12.2100   33.3370 N.pl3 184  ARG184     -0.0865
    181  CZ        24.0360   13.0540   34.0880 C.cat 184  ARG184      0.5346
    182  NH1       24.6070   13.6780   35.1170 N.pl3 184  ARG184      0.1354
    183  NH2       22.7560   13.2850   33.8050 N.pl3 184  ARG184      0.1354
    184  N         28.5640   14.0810   26.5770 N.3   187  GLY187     -0.1210
    185  CA        29.6820   13.1610   26.5430 C.3   187  GLY187      0.1956
    186  C         29.2010   11.7550   26.2770 C.2   187  GLY187      0.2611
    187  O         29.8200   11.0160   25.5140 O.2   187  GLY187     -0.2717
    188  N         28.1020   11.3740   26.9190 N.am  188  LYS188     -0.1979
    189  CA        27.5380   10.0510   26.6880 C.3   188  LYS188      0.1596
    190  C         27.0160    9.9730   25.2490 C.2   188  LYS188      0.2287
    191  O         27.1490    8.9380   24.5850 O.2   188  LYS188     -0.2864
    192  CB        26.4170    9.7510   27.6890 C.3   188  LYS188      0.0298
    193  CG        26.9360    9.5110   29.1020 C.3   188  LYS188      0.0038
    194  CD        26.0020    8.6290   29.9260 C.3   188  LYS188      0.0206
    195  CE        24.6790    9.3200   30.2410 C.3   188  LYS188      0.1093
    196  NZ        23.7640    8.4280   31.0270 N.3   188  LYS188     -0.1314
    197  N         29.9680    9.6930   22.8890 N.3   191  SER191     -0.1217
    198  CA        30.4880    8.3480   23.0210 C.3   191  SER191      0.1889
    199  C         29.6630    7.3450   22.2210 C.2   191  SER191      0.2288
    200  O         30.2110    6.5640   21.4420 O.2   191  SER191     -0.2866
    201  CB        30.4870    7.9530   24.4990 C.3   191  SER191      0.2089
    202  OG        31.2020    6.7510   24.7150 O.3   191  SER191     -0.2183
@<TRIPOS>BOND
     1   200   199    2
     2   101   102    2
     3   101   100    1
     4   199   198    1
     5   100    99    1
     6   100   103    1
     7   197   198    1
     8   198   201    1
     9   108   106   ar
    10   108   109   ar
    11   106   104   ar
    12   110   111    1
    13   109   107   ar
    14   104   103    1
    15   104   105   ar
    16   127   128   ar
    17   127   125   ar
    18   107   105   ar
    19   201   202    1
    20   128   126   ar
    21   191   190    2
    22   125   123   ar
    23   190   189    1
    24   111   114    1
    25   111   112    1
    26   187   186    2
    27   114   115    1
    28   126   124   ar
    29   118   119    1
    30    92    91    2
    31   112   113    2
    32   123   124   ar
    33   123   122    1
    34   186   185    1
    35   186   188   am
    36    91    90    1
    37   185   184    1
    38   189   188    1
    39   189   192    1
    40   116   115    1
    41   117   115    1
    42   119   122    1
    43   119   120    1
    44    93    90    1
    45    93    94    1
    46    90    89    1
    47    96    94   ar
    48    96    98   ar
    49   192   193    1
    50    94    95   ar
    51   120   129   am
    52   120   121    2
    53   129   130    1
    54    98    97   ar
    55   168   167    2
    56   176   175    2
    57   193   194    1
    58    95    97   ar
    59   171   170    1
    60   175   174    1
    61   130   133    1
    62   130   131    1
    63   167   166    1
    64   167   173   am
    65   194   195    1
    66   166   165    1
    67   166   169    1
    68    79    78    1
    69   131   132    2
    70   170   169    1
    71   170   172    1
    72    84    83    2
    73   195   196    1
    74    87    85    1
    75    80    78    1
    76    78    77    1
    77   173   174    1
    78    83    82    1
    79   174   177    1
    80   134   135    1
    81   143   141   ar
    82   143   144   ar
    83   141   139   ar
    84    85    82    1
    85    85    86    1
    86    76    75    2
    87    82    81    1
    88   177   178    1
    89    77    74    1
    90   178   179    1
    91   145   144    1
    92   135   138    1
    93   135   136    1
    94   144   142   ar
    95    75    74    1
    96   139   138    1
    97   139   140   ar
    98    74    73    1
    99    86    88    1
   100   180   179    1
   101   180   181    2
   102   160   159    2
   103   136   137    2
   104   142   140   ar
   105   183   181    1
   106   181   182    1
   107    73    63   am
   108   159   158    1
   109    64    63    2
   110    56    55    2
   111    63    62    1
   112   157   158    1
   113   158   161    1
   114    59    58    1
   115    57    58    1
   116    57    54    1
   117    55    54    1
   118    60    58    1
   119   164   162    1
   120    54    53    1
   121   161   162    1
   122    62    65    1
   123    62    61    1
   124   146   147    1
   125    65    66    1
   126    26    24    1
   127     8     6    1
   128   162   163    1
   129   153   155   ar
   130   153   151   ar
   131   155   156   ar
   132    53    44   am
   133   147   150    1
   134   147   148    1
   135    66    67   ar
   136    66    68   ar
   137     5     6    1
   138     5     2    1
   139    67    69   ar
   140    24    25    1
   141    24    23    2
   142   150   151    1
   143     6     7    1
   144   148   149    2
   145   151   152   ar
   146     1     2    1
   147    45    44    2
   148   156   154   ar
   149    44    43    1
   150    23    22    1
   151    68    70   ar
   152     2     3    1
   153     4     3    2
   154    69    71   ar
   155   152   154   ar
   156     3     9   am
   157    49    51   ar
   158    49    47   ar
   159    51    52   ar
   160    42    43    1
   161    43    46    1
   162    70    71   ar
   163    22    21    1
   164    71    72    1
   165    41    40    1
   166    46    47    1
   167    47    48   ar
   168    52    50   ar
   169    21    20    1
   170    20    17    1
   171     9    10    1
   172    16    17    1
   173    16    11   am
   174    10    11    1
   175    10    13    1
   176    40    39    1
   177    48    50   ar
   178    17    18    1
   179    11    12    2
   180    33    27    1
   181    33    32    1
   182    14    13    1
   183    13    15    1
   184    39    38    1
   185    18    27   am
   186    18    19    2
   187    38    35    1
   188    27    28    1
   189    37    36    2
   190    32    31    1
   191    36    35    1
   192    30    29    2
   193    35    34    1
   194    28    29    1
   195    28    31    1
