@<TRIPOS>MOLECULE
tmp/1gnjA03.pdb
 198 183 0 0 0
SMALL
GASTEIGER

@<TRIPOS>ATOM
      1  N          4.9800   12.9310   11.8860 N.3   385  LEU385     -0.1245
      2  CA         5.2940   12.4110   13.2130 C.3   385  LEU385      0.1561
      3  C          5.8430   13.5330   14.0810 C.2   385  LEU385      0.2260
      4  O          5.4300   13.6930   15.2280 O.2   385  LEU385     -0.2867
      5  CB         6.3020   11.2640   13.1340 C.3   385  LEU385      0.0270
      6  CG         5.6390    9.9290   12.8010 C.3   385  LEU385      0.0019
      7  CD1        6.6430    8.7890   12.9350 C.3   385  LEU385      0.0001
      8  CD2        4.4700    9.7150   13.7500 C.3   385  LEU385      0.0001
      9  N          3.7830   14.9720   17.4100 N.3   389  ASN389     -0.1240
     10  CA         4.4610   14.8420   18.6840 C.3   389  ASN389      0.1653
     11  C          4.9400   16.1560   19.2820 C.2   389  ASN389      0.2266
     12  O          4.8890   16.3300   20.4950 O.2   389  ASN389     -0.2867
     13  CB         5.6040   13.8330   18.5750 C.3   389  ASN389      0.1155
     14  CG         5.1140   12.3950   18.7000 C.2   389  ASN389      0.2627
     15  OD1        4.6370   11.9730   19.7560 O.2   389  ASN389     -0.2716
     16  ND2        5.2180   11.6470   17.6210 N.am  389  ASN389     -0.0877
     17  N          1.6360    4.9680   25.9580 N.3   408  ARG408     -0.1231
     18  CA         1.7260    4.5650   24.5660 C.3   408  ARG408      0.1694
     19  C          2.6240    3.3550   24.2720 C.2   408  ARG408      0.2592
     20  O          2.2060    2.4090   23.5990 O.2   408  ARG408     -0.2718
     21  CB         2.1950    5.7650   23.7430 C.3   408  ARG408      0.0321
     22  CG         2.0050    5.6180   22.2530 C.3   408  ARG408      0.0489
     23  CD         2.0250    6.9740   21.5700 C.3   408  ARG408      0.2205
     24  NE         3.3780    7.3670   21.2030 N.pl3 408  ARG408     -0.0865
     25  CZ         3.7460    8.6120   20.9150 C.cat 408  ARG408      0.5346
     26  NH1        2.8590    9.6000   20.9560 N.pl3 408  ARG408      0.1354
     27  NH2        5.0050    8.8660   20.5750 N.pl3 408  ARG408      0.1354
     28  N          3.8510    3.3760   24.7730 N.am  409  TYR409     -0.1976
     29  CA         4.7750    2.2850   24.5020 C.3   409  TYR409      0.1639
     30  C          4.6290    1.0420   25.3880 C.2   409  TYR409      0.2290
     31  O          5.0040   -0.0650   24.9950 O.2   409  TYR409     -0.2864
     32  CB         6.2110    2.8270   24.5440 C.3   409  TYR409      0.0560
     33  CG         6.4520    3.8890   23.4960 C.ar  409  TYR409     -0.0198
     34  CD1        6.2460    3.6100   22.1370 C.ar  409  TYR409     -0.0009
     35  CD2        6.8420    5.1840   23.8530 C.ar  409  TYR409     -0.0009
     36  CE1        6.4160    4.5940   21.1600 C.ar  409  TYR409      0.0417
     37  CE2        7.0190    6.1770   22.8820 C.ar  409  TYR409      0.0417
     38  CZ         6.8020    5.8730   21.5370 C.ar  409  TYR409      0.1957
     39  OH         6.9660    6.8390   20.5680 O.3   409  TYR409     -0.2866
     40  N          2.4090   -0.9940   23.4230 N.3   412  LYS412     -0.1231
     41  CA         2.9940   -1.6140   22.2450 C.3   412  LYS412      0.1693
     42  C          3.7490   -2.8770   22.6150 C.2   412  LYS412      0.2591
     43  O          3.5690   -3.9180   21.9990 O.2   412  LYS412     -0.2718
     44  CB         3.9730   -0.6660   21.5530 C.3   412  LYS412      0.0285
     45  CG         3.4570    0.7200   21.2660 C.3   412  LYS412      0.0035
     46  CD         2.6120    0.7810   20.0260 C.3   412  LYS412      0.0206
     47  CE         2.6180    2.2040   19.4820 C.3   412  LYS412      0.1093
     48  NZ         1.8440    2.3510   18.2230 N.3   412  LYS412     -0.1314
     49  N          4.6010   -2.7760   23.6250 N.am  413  VAL413     -0.1980
     50  CA         5.4180   -3.9080   24.0530 C.3   413  VAL413      0.1595
     51  C          5.4380   -4.0780   25.5760 C.2   413  VAL413      0.2287
     52  O          6.4250   -3.7620   26.2450 O.2   413  VAL413     -0.2864
     53  CB         6.8640   -3.7440   23.5310 C.3   413  VAL413      0.0276
     54  CG1        6.8800   -3.8370   22.0280 C.3   413  VAL413      0.0022
     55  CG2        7.4060   -2.3910   23.9400 C.3   413  VAL413      0.0022
     56  N          8.2680   -5.7180   27.6870 N.3   416  VAL416     -0.1245
     57  CA         9.4390   -4.9740   28.1310 C.3   416  VAL416      0.1561
     58  C          9.4180   -4.6360   29.6080 C.2   416  VAL416      0.2260
     59  O          8.3750   -4.3370   30.1790 O.2   416  VAL416     -0.2867
     60  CB         9.6120   -3.6750   27.3270 C.3   416  VAL416      0.0252
     61  CG1       10.8510   -2.9150   27.8050 C.3   416  VAL416      0.0019
     62  CG2        9.7410   -4.0090   25.8670 C.3   416  VAL416      0.0019
     63  N         13.1000   -0.2030   32.1110 N.3   420  THR420     -0.1203
     64  CA        13.5810    0.1120   30.7670 C.3   420  THR420      0.1994
     65  C         12.5850    1.0210   30.0480 C.2   420  THR420      0.2617
     66  O         12.9780    1.9140   29.2930 O.2   420  THR420     -0.2717
     67  CB        13.7990   -1.1740   29.9420 C.3   420  THR420      0.1784
     68  OG1       14.8290   -1.9570   30.5540 O.3   420  THR420     -0.2211
     69  CG2       14.2130   -0.8460   28.5180 C.3   420  THR420      0.0376
     70  N         11.2950    0.7990   30.2880 N.am  421  LEU421     -0.1979
     71  CA        10.2710    1.6260   29.6700 C.3   421  LEU421      0.1596
     72  C         10.3700    3.0550   30.2100 C.2   421  LEU421      0.2287
     73  O         10.1500    4.0210   29.4800 O.2   421  LEU421     -0.2864
     74  CB         8.8740    1.0440   29.9400 C.3   421  LEU421      0.0297
     75  CG         8.4790   -0.1820   29.0980 C.3   421  LEU421      0.0022
     76  CD1        7.1640   -0.7680   29.5440 C.3   421  LEU421      0.0001
     77  CD2        8.3740    0.2380   27.6580 C.3   421  LEU421      0.0001
     78  N         13.7030    4.8300   28.6750 N.3   424  VAL424     -0.1245
     79  CA        13.4690    5.1950   27.2900 C.3   424  VAL424      0.1561
     80  C         12.5170    6.3650   27.1050 C.2   424  VAL424      0.2260
     81  O         12.8210    7.2990   26.3720 O.2   424  VAL424     -0.2867
     82  CB        12.9280    3.9930   26.4980 C.3   424  VAL424      0.0252
     83  CG1       12.7710    4.3610   25.0330 C.3   424  VAL424      0.0019
     84  CG2       13.8730    2.8080   26.6550 C.3   424  VAL424      0.0019
     85  N         13.2080   10.0040   25.4030 N.3   428  LEU428     -0.1245
     86  CA        12.3930   10.4100   24.2760 C.3   428  LEU428      0.1561
     87  C         11.8710   11.8000   24.6110 C.2   428  LEU428      0.2260
     88  O         11.8560   12.6910   23.7650 O.2   428  LEU428     -0.2867
     89  CB        11.2400    9.4210   24.0890 C.3   428  LEU428      0.0270
     90  CG        11.2590    8.5860   22.8040 C.3   428  LEU428      0.0019
     91  CD1       12.6810    8.2970   22.3640 C.3   428  LEU428      0.0001
     92  CD2       10.4830    7.3070   23.0440 C.3   428  LEU428      0.0001
     93  N         17.5390   10.4160   18.0880 N.3   451  LEU451     -0.1245
     94  CA        16.7990    9.1720   18.0000 C.3   451  LEU451      0.1561
     95  C         17.6330    8.0010   17.5270 C.2   451  LEU451      0.2260
     96  O         17.2960    6.8600   17.8030 O.2   451  LEU451     -0.2867
     97  CB        15.5920    9.3430   17.0850 C.3   451  LEU451      0.0270
     98  CG        14.2390    9.5630   17.7570 C.3   451  LEU451      0.0019
     99  CD1       14.4130   10.3780   19.0080 C.3   451  LEU451      0.0001
    100  CD2       13.2940   10.2510   16.7920 C.3   451  LEU451      0.0001
    101  N         19.4330    6.5020   20.6570 N.3   454  VAL454     -0.1231
    102  CA        18.4290    5.9340   21.5360 C.3   454  VAL454      0.1692
    103  C         17.9460    4.6080   20.9600 C.2   454  VAL454      0.2591
    104  O         17.8560    3.6130   21.6630 O.2   454  VAL454     -0.2718
    105  CB        17.2380    6.8970   21.6990 C.3   454  VAL454      0.0266
    106  CG1       16.1500    6.2520   22.5400 C.3   454  VAL454      0.0020
    107  CG2       17.7120    8.1890   22.3480 C.3   454  VAL454      0.0020
    108  N         17.6530    4.6040   19.6680 N.am  455  LEU455     -0.1980
    109  CA        17.1800    3.4120   18.9910 C.3   455  LEU455      0.1596
    110  C         18.2460    2.3370   18.9930 C.2   455  LEU455      0.2287
    111  O         17.9680    1.1630   19.2320 O.2   455  LEU455     -0.2864
    112  CB        16.8200    3.7440   17.5500 C.3   455  LEU455      0.0297
    113  CG        15.4340    3.2940   17.0980 C.3   455  LEU455      0.0022
    114  CD1       14.3870    3.8240   18.0670 C.3   455  LEU455      0.0001
    115  CD2       15.1710    3.8090   15.6820 C.3   455  LEU455      0.0001
    116  N         18.7790    0.8660   22.5390 N.3   458  LEU458     -0.1245
    117  CA        17.7340   -0.0030   23.0400 C.3   458  LEU458      0.1561
    118  C         17.8100   -1.3470   22.3160 C.2   458  LEU458      0.2260
    119  O         17.3940   -2.3750   22.8480 O.2   458  LEU458     -0.2867
    120  CB        16.3510    0.6500   22.8850 C.3   458  LEU458      0.0270
    121  CG        15.6230    0.7150   21.5440 C.3   458  LEU458      0.0019
    122  CD1       15.2600   -0.6850   21.0730 C.3   458  LEU458      0.0001
    123  CD2       14.3490    1.5370   21.7110 C.3   458  LEU458      0.0001
    124  N         20.4330   -3.6610   24.1820 N.3   461  LEU461     -0.1231
    125  CA        19.8660   -4.2440   25.3930 C.3   461  LEU461      0.1693
    126  C         19.0750   -5.4750   25.0040 C.2   461  LEU461      0.2592
    127  O         19.2730   -6.5690   25.5340 O.2   461  LEU461     -0.2718
    128  CB        18.9070   -3.2800   26.0860 C.3   461  LEU461      0.0284
    129  CG        19.4230   -1.9650   26.6520 C.3   461  LEU461      0.0019
    130  CD1       18.2900   -1.2950   27.4030 C.3   461  LEU461      0.0001
    131  CD2       20.5840   -2.2050   27.5860 C.3   461  LEU461      0.0001
    132  N         18.1670   -5.2800   24.0610 N.am  462  HIS462     -0.1976
    133  CA        17.3160   -6.3580   23.6090 C.3   462  HIS462      0.1656
    134  C         18.1570   -7.4740   23.0200 C.2   462  HIS462      0.2291
    135  O         17.7580   -8.6320   23.0310 O.2   462  HIS462     -0.2864
    136  CB        16.3160   -5.8340   22.5760 C.3   462  HIS462      0.0771
    137  CG        15.0890   -6.6800   22.4430 C.ar  462  HIS462      0.0820
    138  ND1       14.8760   -7.5210   21.3740 N.ar  462  HIS462     -0.2267
    139  CD2       14.0040   -6.8070   23.2440 C.ar  462  HIS462      0.1154
    140  CE1       13.7110   -8.1250   21.5190 C.ar  462  HIS462      0.1986
    141  NE2       13.1620   -7.7090   22.6450 N.ar  462  HIS462     -0.2212
    142  N         19.0180   -9.3980   25.9980 N.3   465  THR465     -0.1218
    143  CA        17.8910  -10.0780   26.6190 C.3   465  THR465      0.1862
    144  C         16.5980   -9.8700   25.8420 C.2   465  THR465      0.2287
    145  O         15.7040   -9.1380   26.2710 O.2   465  THR465     -0.2866
    146  CB        17.7190   -9.5860   28.0580 C.3   465  THR465      0.1770
    147  OG1       18.0030   -8.1830   28.1120 O.3   465  THR465     -0.2211
    148  CG2       18.6680  -10.3160   28.9790 C.3   465  THR465      0.0375
    149  N         12.9880   -9.9560   24.2120 N.3   467  VAL467     -0.1245
    150  CA        11.7120  -10.0930   24.8810 C.3   467  VAL467      0.1561
    151  C         10.5920  -10.1850   23.8630 C.2   467  VAL467      0.2260
    152  O          9.5420  -10.7560   24.1430 O.2   467  VAL467     -0.2867
    153  CB        11.4540   -8.9010   25.8290 C.3   467  VAL467      0.0252
    154  CG1       10.1790   -9.1200   26.5850 C.3   467  VAL467      0.0019
    155  CG2       12.6050   -8.7470   26.8070 C.3   467  VAL467      0.0019
    156  N         10.3580   -6.5000   18.1470 N.3   471  VAL471     -0.1245
    157  CA        11.4660   -5.5850   18.3960 C.3   471  VAL471      0.1561
    158  C         12.7190   -6.0860   17.6800 C.2   471  VAL471      0.2260
    159  O         13.4730   -5.3090   17.0790 O.2   471  VAL471     -0.2867
    160  CB        11.7510   -5.4640   19.9240 C.3   471  VAL471      0.0252
    161  CG1       13.0110   -4.6360   20.1710 C.3   471  VAL471      0.0019
    162  CG2       10.5540   -4.8270   20.6190 C.3   471  VAL471      0.0019
    163  N         13.6120    2.9000   12.0800 N.3   483  ARG483     -0.1245
    164  CA        12.6350    3.7980   12.6970 C.3   483  ARG483      0.1563
    165  C         11.2110    3.5670   12.1660 C.2   483  ARG483      0.2260
    166  O         10.2560    3.5000   12.9400 O.2   483  ARG483     -0.2867
    167  CB        13.0800    5.2650   12.5100 C.3   483  ARG483      0.0307
    168  CG        12.4040    6.2790   13.4270 C.3   483  ARG483      0.0489
    169  CD        10.9890    6.6210   12.9550 C.3   483  ARG483      0.2205
    170  NE        11.0180    7.2450   11.6350 N.pl3 483  ARG483     -0.0865
    171  CZ        10.0540    7.1430   10.7340 C.cat 483  ARG483      0.5346
    172  NH1        8.9700    6.4380   11.0080 N.pl3 483  ARG483      0.1354
    173  NH2       10.1840    7.7350    9.5520 N.pl3 483  ARG483      0.1354
    174  N          9.7340    0.5850   13.8250 N.3   486  PHE486     -0.1227
    175  CA         9.3180    0.8530   15.1980 C.3   486  PHE486      0.1736
    176  C          8.0360    1.6920   15.2320 C.2   486  PHE486      0.2596
    177  O          7.1600    1.4730   16.0720 O.2   486  PHE486     -0.2718
    178  CB        10.4440    1.5540   15.9680 C.3   486  PHE486      0.0547
    179  CG        11.4720    0.6050   16.5330 C.ar  486  PHE486     -0.0202
    180  CD1       11.1390   -0.2540   17.5750 C.ar  486  PHE486     -0.0042
    181  CD2       12.7660    0.5580   16.0110 C.ar  486  PHE486     -0.0042
    182  CE1       12.0810   -1.1530   18.0940 C.ar  486  PHE486     -0.0003
    183  CE2       13.7140   -0.3340   16.5180 C.ar  486  PHE486     -0.0003
    184  CZ        13.3730   -1.1930   17.5640 C.ar  486  PHE486     -0.0000
    185  N          7.9220    2.6450   14.3130 N.am  487  SER487     -0.1952
    186  CA         6.7380    3.4910   14.2520 C.3   487  SER487      0.1924
    187  C          5.4940    2.6720   13.9300 C.2   487  SER487      0.2314
    188  O          4.3890    3.0370   14.3280 O.2   487  SER487     -0.2863
    189  CB         6.9180    4.5740   13.1920 C.3   487  SER487      0.2116
    190  OG         7.9150    5.4990   13.5740 O.3   487  SER487     -0.2180
    191  N          4.7870   -0.3860   14.9950 N.3   489  LEU489     -0.1245
    192  CA         4.3500   -1.3010   16.0360 C.3   489  LEU489      0.1561
    193  C          3.0090   -0.8680   16.5790 C.2   489  LEU489      0.2260
    194  O          2.8520    0.2610   17.0290 O.2   489  LEU489     -0.2867
    195  CB         5.3420   -1.3390   17.1850 C.3   489  LEU489      0.0270
    196  CG         6.6390   -2.0560   16.8680 C.3   489  LEU489      0.0019
    197  CD1        7.5520   -1.9650   18.0730 C.3   489  LEU489      0.0001
    198  CD2        6.3460   -3.5070   16.4950 C.3   489  LEU489      0.0001
@<TRIPOS>BOND
     1   173   171    1
     2   171   172    1
     3   171   170    2
     4   170   169    1
     5     1     2    1
     6   163   164    1
     7   165   164    1
     8   165   166    2
     9   167   164    1
    10   167   168    1
    11     6     7    1
    12     6     5    1
    13     6     8    1
    14   169   168    1
    15     5     2    1
    16   189   190    1
    17   189   186    1
    18     2     3    1
    19   174   175    1
    20   187   186    1
    21   187   188    2
    22     3     4    2
    23   186   185    1
    24   185   176   am
    25   191   192    1
    26   175   176    1
    27   175   178    1
    28   176   177    2
    29   115   113    1
    30   178   179    1
    31   181   183   ar
    32   181   179   ar
    33   192   193    1
    34   192   195    1
    35   198   196    1
    36   183   184   ar
    37   179   180   ar
    38   193   194    2
    39   100    98    1
    40   196   195    1
    41   196   197    1
    42   159   158    2
    43    97    98    1
    44    97    94    1
    45   113   112    1
    46   113   114    1
    47     9    10    1
    48    95    96    2
    49    95    94    1
    50   112   109    1
    51   184   182   ar
    52   180   182   ar
    53    16    14   am
    54   158   157    1
    55    98    99    1
    56    94    93    1
    57   156   157    1
    58    48    47    1
    59   157   160    1
    60    13    10    1
    61    13    14    1
    62    10    11    1
    63    14    15    2
    64   109   110    1
    65   109   108    1
    66   110   111    2
    67    11    12    2
    68    47    46    1
    69   108   103   am
    70   160   161    1
    71   160   162    1
    72    46    45    1
    73    39    38    1
    74    27    25    1
    75   101   102    1
    76    25    26    1
    77    25    24    2
    78   103   102    1
    79   103   104    2
    80   122   121    1
    81    36    38   ar
    82    36    34   ar
    83    24    23    1
    84    45    44    1
    85   138   140   ar
    86   138   137   ar
    87   140   141   ar
    88   102   105    1
    89    38    37   ar
    90   121   123    1
    91   121   120    1
    92    44    41    1
    93    23    22    1
    94   105   107    1
    95   105   106    1
    96    43    42    2
    97    54    53    1
    98    34    33   ar
    99    41    42    1
   100    41    40    1
   101    22    21    1
   102   118   119    2
   103   118   117    1
   104    91    90    1
   105   137   136    1
   106   137   139   ar
   107   116   117    1
   108   136   133    1
   109    42    49   am
   110   141   139   ar
   111    90    92    1
   112    90    89    1
   113    37    35   ar
   114   120   117    1
   115   134   135    2
   116   134   133    1
   117    33    35   ar
   118    33    32    1
   119    53    55    1
   120    53    50    1
   121    20    19    2
   122   133   132    1
   123    49    50    1
   124    21    18    1
   125    88    87    2
   126   151   152    2
   127   151   150    1
   128    50    51    1
   129   132   126   am
   130    89    86    1
   131   124   125    1
   132   149   150    1
   133    19    18    1
   134    19    28   am
   135    86    87    1
   136    86    85    1
   137    29    32    1
   138    29    28    1
   139    29    30    1
   140    18    17    1
   141   150   153    1
   142    31    30    2
   143   126   125    1
   144   126   127    2
   145    83    82    1
   146   125   128    1
   147    51    52    2
   148   153   154    1
   149   153   155    1
   150   144   145    2
   151   144   143    1
   152    62    60    1
   153   142   143    1
   154   128   129    1
   155    81    80    2
   156    82    84    1
   157    82    79    1
   158   143   146    1
   159   129   130    1
   160   129   131    1
   161    80    79    1
   162    79    78    1
   163    60    61    1
   164    60    57    1
   165    77    75    1
   166    56    57    1
   167   146   147    1
   168   146   148    1
   169    57    58    1
   170    69    67    1
   171    75    76    1
   172    75    74    1
   173    66    65    2
   174    73    72    2
   175    58    59    2
   176    71    74    1
   177    71    72    1
   178    71    70    1
   179    67    68    1
   180    67    64    1
   181    65    70   am
   182    65    64    1
   183    64    63    1
