@<TRIPOS>MOLECULE
tmp/1gnjA06.pdb
 140 133 0 0 0
SMALL
GASTEIGER

@<TRIPOS>ATOM
      1  N         28.6210    4.6850   14.7960 N.3   197  LYS197     -0.1245
      2  CA        29.1330    4.8080   13.4410 C.3   197  LYS197      0.1561
      3  C         30.0360    3.6560   13.0580 C.2   197  LYS197      0.2260
      4  O         29.9860    3.1710   11.9360 O.2   197  LYS197     -0.2867
      5  CB        29.8810    6.1320   13.2670 C.3   197  LYS197      0.0271
      6  CG        28.9780    7.3600   13.3110 C.3   197  LYS197      0.0035
      7  CD        29.7510    8.6540   13.0370 C.3   197  LYS197      0.0206
      8  CE        28.8230    9.8740   13.0880 C.3   197  LYS197      0.1093
      9  NZ        29.4940   11.1450   12.6620 N.3   197  LYS197     -0.1314
     10  N         25.5400    7.3550    2.9810 N.3   212  TRP212     -0.1241
     11  CA        25.2100    8.1520    4.1490 C.3   212  TRP212      0.1605
     12  C         26.0730    9.4280    4.1090 C.2   212  TRP212      0.2264
     13  O         25.5910   10.5320    4.3450 O.2   212  TRP212     -0.2867
     14  CB        25.5130    7.3470    5.4210 C.3   212  TRP212      0.0550
     15  CG        25.1080    8.0410    6.6830 C.ar  212  TRP212      0.0003
     16  CD1       23.8700    8.0390    7.2560 C.ar  212  TRP212      0.0946
     17  CD2       25.8970    8.9670    7.4350 C.ar  212  TRP212      0.0152
     18  NE1       23.8340    8.9230    8.3090 N.ar  212  TRP212     -0.2442
     19  CE2       25.0640    9.5080    8.4390 C.ar  212  TRP212      0.0810
     20  CE3       27.2260    9.4010    7.3500 C.ar  212  TRP212      0.0012
     21  CZ2       25.5140   10.4630    9.3540 C.ar  212  TRP212      0.0191
     22  CZ3       27.6770   10.3530    8.2580 C.ar  212  TRP212      0.0001
     23  CH2       26.8220   10.8760    9.2460 C.ar  212  TRP212      0.0015
     24  N         25.0690   13.4910    3.7760 N.3   216  ARG216     -0.1231
     25  CA        25.4920   14.3460    4.8610 C.3   216  ARG216      0.1694
     26  C         26.3580   15.4950    4.3760 C.2   216  ARG216      0.2591
     27  O         26.1010   16.6410    4.7140 O.2   216  ARG216     -0.2718
     28  CB        26.2660   13.5220    5.8880 C.3   216  ARG216      0.0321
     29  CG        26.6090   14.2610    7.1530 C.3   216  ARG216      0.0489
     30  CD        25.4170   14.3380    8.0700 C.3   216  ARG216      0.2205
     31  NE        25.7900   14.9460    9.3400 N.pl3 216  ARG216     -0.0865
     32  CZ        25.0110   14.9760   10.4140 C.cat 216  ARG216      0.5346
     33  NH1       23.8040   14.4270   10.3840 N.pl3 216  ARG216      0.1354
     34  NH2       25.4430   15.5640   11.5200 N.pl3 216  ARG216      0.1354
     35  N         27.3910   15.1880    3.5950 N.am  217  LEU217     -0.1980
     36  CA        28.2870   16.2220    3.0890 C.3   217  LEU217      0.1596
     37  C         27.6070   17.2300    2.1910 C.2   217  LEU217      0.2287
     38  O         27.9390   18.4090    2.2160 O.2   217  LEU217     -0.2864
     39  CB        29.4460   15.6070    2.3200 C.3   217  LEU217      0.0297
     40  CG        30.5800   15.0700    3.1810 C.3   217  LEU217      0.0022
     41  CD1       31.6460   14.4690    2.2830 C.3   217  LEU217      0.0001
     42  CD2       31.1630   16.1850    4.0280 C.3   217  LEU217      0.0001
     43  N         25.6640   19.9270    4.0650 N.3   220  ARG220     -0.1231
     44  CA        26.5550   20.9180    4.6500 C.3   220  ARG220      0.1694
     45  C         27.2970   21.7890    3.6470 C.2   220  ARG220      0.2592
     46  O         27.4860   22.9830    3.8760 O.2   220  ARG220     -0.2718
     47  CB        27.5620   20.2520    5.5890 C.3   220  ARG220      0.0321
     48  CG        27.1960   20.3850    7.0600 C.3   220  ARG220      0.0489
     49  CD        28.2390   19.7070    7.9340 C.3   220  ARG220      0.2205
     50  NE        27.7560   19.4260    9.2850 N.pl3 220  ARG220     -0.0865
     51  CZ        26.6360   18.7610    9.5480 C.cat 220  ARG220      0.5346
     52  NH1       25.8680   18.3110    8.5590 N.pl3 220  ARG220      0.1354
     53  NH2       26.2880   18.5260   10.8010 N.pl3 220  ARG220      0.1354
     54  N         27.7150   21.1980    2.5380 N.am  221  PHE221     -0.1976
     55  CA        28.4440   21.9390    1.5200 C.3   221  PHE221      0.1639
     56  C         27.6760   21.9360    0.2100 C.2   221  PHE221      0.2290
     57  O         28.1400   21.4120   -0.7910 O.2   221  PHE221     -0.2864
     58  CB        29.8120   21.3060    1.3290 C.3   221  PHE221      0.0560
     59  CG        30.5400   21.0740    2.6120 C.ar  221  PHE221     -0.0200
     60  CD1       30.5270   22.0430    3.6130 C.ar  221  PHE221     -0.0042
     61  CD2       31.2670   19.9020    2.8140 C.ar  221  PHE221     -0.0042
     62  CE1       31.2200   21.8570    4.7870 C.ar  221  PHE221     -0.0003
     63  CE2       31.9710   19.7010    3.9920 C.ar  221  PHE221     -0.0003
     64  CZ        31.9500   20.6820    4.9830 C.ar  221  PHE221     -0.0000
     65  N         37.0600   10.5640    3.6480 N.3   236  LEU236     -0.1245
     66  CA        36.3020   10.4570    4.8840 C.3   236  LEU236      0.1561
     67  C         36.0850    8.9730    5.2100 C.2   236  LEU236      0.2260
     68  O         36.0060    8.5740    6.3800 O.2   236  LEU236     -0.2867
     69  CB        34.9630   11.1790    4.7050 C.3   236  LEU236      0.0270
     70  CG        34.3080   11.9130    5.8820 C.3   236  LEU236      0.0019
     71  CD1       33.5120   10.9570    6.7580 C.3   236  LEU236      0.0001
     72  CD2       35.3960   12.6220    6.6890 C.3   236  LEU236      0.0001
     73  N         39.2950    7.5320    6.5220 N.3   239  VAL239     -0.1231
     74  CA        39.3990    8.0260    7.8840 C.3   239  VAL239      0.1692
     75  C         38.5540    7.2690    8.8950 C.2   239  VAL239      0.2592
     76  O         39.0220    6.9920    9.9960 O.2   239  VAL239     -0.2718
     77  CB        39.0570    9.5310    7.9540 C.3   239  VAL239      0.0266
     78  CG1       38.9450    9.9910    9.4010 C.3   239  VAL239      0.0020
     79  CG2       40.1420   10.3250    7.2460 C.3   239  VAL239      0.0020
     80  N         37.3180    6.9320    8.5430 N.am  240  HIS240     -0.1976
     81  CA        36.4720    6.1980    9.4810 C.3   240  HIS240      0.1656
     82  C         36.9350    4.7640    9.7250 C.2   240  HIS240      0.2291
     83  O         36.9200    4.2760   10.8580 O.2   240  HIS240     -0.2864
     84  CB        35.0180    6.2190    9.0180 C.3   240  HIS240      0.0771
     85  CG        34.2130    7.2930    9.6730 C.ar  240  HIS240      0.0820
     86  ND1       33.6440    7.1360   10.9190 N.ar  240  HIS240     -0.2267
     87  CD2       33.9620    8.5740    9.3000 C.ar  240  HIS240      0.1154
     88  CE1       33.0790    8.2760   11.2860 C.ar  240  HIS240      0.1986
     89  NE2       33.2580    9.1630   10.3210 N.ar  240  HIS240     -0.2212
     90  N         42.8990   12.4990   10.0570 N.3   255  ARG255     -0.1245
     91  CA        41.9890   13.6000   10.3410 C.3   255  ARG255      0.1563
     92  C         42.6850   14.9310   10.1200 C.2   255  ARG255      0.2260
     93  O         42.0640   15.8990    9.6880 O.2   255  ARG255     -0.2867
     94  CB        41.4590   13.5290   11.7800 C.3   255  ARG255      0.0307
     95  CG        40.4220   12.4380   11.9920 C.3   255  ARG255      0.0489
     96  CD        39.7970   12.4480   13.3830 C.3   255  ARG255      0.2205
     97  NE        39.2340   13.7460   13.7340 N.pl3 255  ARG255     -0.0865
     98  CZ        38.1220   13.9120   14.4430 C.cat 255  ARG255      0.5346
     99  NH1       37.4390   12.8550   14.8730 N.pl3 255  ARG255      0.1354
    100  NH2       37.7010   15.1340   14.7380 N.pl3 255  ARG255      0.1354
    101  N         42.9830   15.6020    6.2720 N.3   258  LEU258     -0.1231
    102  CA        41.6760   15.9300    5.7320 C.3   258  LEU258      0.1693
    103  C         41.2110   17.3390    6.0620 C.2   258  LEU258      0.2591
    104  O         40.5140   17.9760    5.2780 O.2   258  LEU258     -0.2718
    105  CB        40.6480   14.9310    6.2370 C.3   258  LEU258      0.0284
    106  CG        39.2470   15.0900    5.6590 C.3   258  LEU258      0.0019
    107  CD1       39.2830   15.0610    4.1310 C.3   258  LEU258      0.0001
    108  CD2       38.3880   13.9720    6.1950 C.3   258  LEU258      0.0001
    109  N         41.5970   17.8250    7.2280 N.am  259  ALA259     -0.1980
    110  CA        41.2020   19.1520    7.6460 C.3   259  ALA259      0.1597
    111  C         41.9830   20.2180    6.8730 C.2   259  ALA259      0.2287
    112  O         41.4100   21.1900    6.3880 O.2   259  ALA259     -0.2864
    113  CB        41.4240   19.3010    9.1480 C.3   259  ALA259      0.0319
    114  N         40.7100   20.4340    3.3120 N.3   262  ILE262     -0.1245
    115  CA        39.4680   21.1760    3.2770 C.3   262  ILE262      0.1561
    116  C         39.7210   22.6640    3.4240 C.2   262  ILE262      0.2260
    117  O         39.1580   23.4620    2.6900 O.2   262  ILE262     -0.2867
    118  CB        38.5090   20.7070    4.3960 C.3   262  ILE262      0.0252
    119  CG1       37.9740   19.3160    4.0680 C.3   262  ILE262      0.0019
    120  CG2       37.3590   21.6840    4.5560 C.3   262  ILE262      0.0019
    121  CD1       36.9940   18.7970    5.0770 C.3   262  ILE262      0.0001
    122  N         39.6560   19.6820   12.8890 N.3   285  SER285     -0.1217
    123  CA        38.7110   18.5960   12.5910 C.3   285  SER285      0.1889
    124  C         37.4080   18.7480   13.3520 C.2   285  SER285      0.2288
    125  O         36.3300   18.8220   12.7690 O.2   285  SER285     -0.2866
    126  CB        39.2870   17.2310   12.9840 C.3   285  SER285      0.2089
    127  OG        40.1640   16.7130   12.0100 O.3   285  SER285     -0.2183
    128  N         35.3460   21.6180   12.1740 N.3   288  ILE288     -0.1231
    129  CA        34.7850   21.3570   10.8720 C.3   288  ILE288      0.1692
    130  C         33.6170   20.3810   10.8750 C.2   288  ILE288      0.2591
    131  O         32.6070   20.6300   10.2180 O.2   288  ILE288     -0.2718
    132  CB        35.8670   20.8400    9.9060 C.3   288  ILE288      0.0266
    133  CG1       36.9640   21.8990    9.7480 C.3   288  ILE288      0.0019
    134  CG2       35.2350   20.4860    8.5590 C.3   288  ILE288      0.0020
    135  CD1       37.9970   21.5530    8.7190 C.3   288  ILE288      0.0001
    136  N         33.7450   19.2720   11.5990 N.am  289  ALA289     -0.1980
    137  CA        32.6760   18.2820   11.6210 C.3   289  ALA289      0.1597
    138  C         31.4160   18.8240   12.2590 C.2   289  ALA289      0.2287
    139  O         30.3360   18.2630   12.0920 O.2   289  ALA289     -0.2864
    140  CB        33.1290   17.0400   12.3470 C.3   289  ALA289      0.0319
@<TRIPOS>BOND
     1    57    56    2
     2    56    55    1
     3    58    55    1
     4    58    59    1
     5    55    54    1
     6    37    38    2
     7    37    36    1
     8    41    40    1
     9    39    36    1
    10    39    40    1
    11    54    45   am
    12    59    61   ar
    13    59    60   ar
    14   117   116    2
    15    61    63   ar
    16    10    11    1
    17    36    35    1
    18    40    42    1
    19   115   114    1
    20   115   116    1
    21   115   118    1
    22    35    26   am
    23    60    62   ar
    24    45    46    2
    25    45    44    1
    26    65    66    1
    27    24    25    1
    28    63    64   ar
    29    43    44    1
    30   119   118    1
    31   119   121    1
    32    12    11    1
    33    12    13    2
    34   107   106    1
    35    11    14    1
    36    26    27    2
    37    26    25    1
    38   118   120    1
    39    44    47    1
    40    69    66    1
    41    69    70    1
    42    62    64   ar
    43    25    28    1
    44    66    67    1
    45    67    68    2
    46   104   103    2
    47    14    15    1
    48    47    48    1
    49   106   108    1
    50   106   105    1
    51   102   103    1
    52   102   105    1
    53   102   101    1
    54    70    72    1
    55    70    71    1
    56    28    29    1
    57   103   109   am
    58   112   111    2
    59    73    74    1
    60    15    16   ar
    61    15    17   ar
    62   111   110    1
    63    48    49    1
    64    29    30    1
    65   109   110    1
    66    79    77    1
    67    16    18   ar
    68    20    17   ar
    69    20    22   ar
    70    17    19   ar
    71   110   113    1
    72    74    77    1
    73    74    75    1
    74    49    50    1
    75    77    78    1
    76    30    31    1
    77    22    23   ar
    78    18    19   ar
    79    19    21   ar
    80    80    75   am
    81    80    81    1
    82   134   132    1
    83    52    51    1
    84   135   133    1
    85    75    76    2
    86    84    81    1
    87    84    85    1
    88    23    21   ar
    89    50    51    2
    90    87    85   ar
    91    87    89   ar
    92    31    32    2
    93    81    82    1
    94    51    53    1
    95    85    86   ar
    96    93    92    2
    97    82    83    2
    98   133   132    1
    99   132   129    1
   100    90    91    1
   101    92    91    1
   102   131   130    2
   103    89    88   ar
   104    91    94    1
   105    33    32    1
   106    32    34    1
   107   129   130    1
   108   129   128    1
   109   130   136   am
   110    86    88   ar
   111   136   137    1
   112   137   138    1
   113   137   140    1
   114    94    95    1
   115     4     3    2
   116    95    96    1
   117   127   126    1
   118   139   138    2
   119   123   122    1
   120   123   126    1
   121   123   124    1
   122     9     8    1
   123   125   124    2
   124     7     8    1
   125     7     6    1
   126     3     2    1
   127     5     6    1
   128     5     2    1
   129    96    97    1
   130     2     1    1
   131    97    98    2
   132    98   100    1
   133    98    99    1
