@<TRIPOS>MOLECULE
tmp/1gnjA01.pdb
 224 212 0 0 0
SMALL
GASTEIGER

@<TRIPOS>ATOM
      1  N         58.4380   12.8170   17.3300 N.3     5  VAL5       -0.1245
      2  CA        58.1360   13.3470   18.6610 C.3     5  VAL5        0.1561
      3  C         58.3790   14.8350   18.7400 C.2     5  VAL5        0.2260
      4  O         57.5240   15.5850   19.2060 O.2     5  VAL5       -0.2867
      5  CB        58.9930   12.7150   19.7730 C.3     5  VAL5        0.0252
      6  CG1       58.1340   11.8480   20.6560 C.3     5  VAL5        0.0019
      7  CG2       60.1320   11.9370   19.1740 C.3     5  VAL5        0.0019
      8  N         55.5240   16.7120   16.7930 N.3     8  ARG8       -0.1245
      9  CA        54.2230   16.7460   17.4440 C.3     8  ARG8        0.1563
     10  C         54.2660   17.6460   18.6540 C.2     8  ARG8        0.2260
     11  O         53.3420   18.4230   18.9070 O.2     8  ARG8       -0.2867
     12  CB        53.8280   15.3560   17.9030 C.3     8  ARG8        0.0307
     13  CG        53.9190   14.3130   16.8420 C.3     8  ARG8        0.0489
     14  CD        52.7620   14.3810   15.8950 C.3     8  ARG8        0.2205
     15  NE        52.7860   13.1990   15.0430 N.pl3   8  ARG8       -0.0865
     16  CZ        51.7910   12.8200   14.2560 C.cat   8  ARG8        0.5346
     17  NH1       50.6720   13.5330   14.2040 N.pl3   8  ARG8        0.1354
     18  NH2       51.9230   11.7250   13.5210 N.pl3   8  ARG8        0.1354
     19  N         51.8980   21.1250   18.9720 N.3    12  LEU12      -0.1245
     20  CA        50.8110   20.6920   19.8400 C.3    12  LEU12       0.1561
     21  C         50.9060   21.4770   21.1580 C.2    12  LEU12       0.2260
     22  O         49.8960   21.9580   21.6940 O.2    12  LEU12      -0.2867
     23  CB        50.9430   19.1830   20.0880 C.3    12  LEU12       0.0270
     24  CG        49.7090   18.2660   20.1540 C.3    12  LEU12       0.0019
     25  CD1       48.6990   18.6710   19.0850 C.3    12  LEU12       0.0001
     26  CD2       50.1290   16.7970   19.9590 C.3    12  LEU12       0.0001
     27  N         50.1360   18.0810   24.7850 N.3    17  PHE17      -0.1241
     28  CA        50.9420   16.8740   24.6400 C.3    17  PHE17       0.1605
     29  C         50.8250   15.9770   25.8770 C.2    17  PHE17       0.2264
     30  O         50.4810   14.8030   25.7680 O.2    17  PHE17      -0.2867
     31  CB        52.3980   17.2680   24.4190 C.3    17  PHE17       0.0534
     32  CG        53.3170   16.1140   24.1080 C.ar   17  PHE17      -0.0203
     33  CD1       53.5100   15.6960   22.7940 C.ar   17  PHE17      -0.0042
     34  CD2       54.0310   15.4830   25.1240 C.ar   17  PHE17      -0.0042
     35  CE1       54.4130   14.6620   22.4930 C.ar   17  PHE17      -0.0003
     36  CE2       54.9310   14.4540   24.8340 C.ar   17  PHE17      -0.0003
     37  CZ        55.1230   14.0410   23.5080 C.ar   17  PHE17      -0.0000
     38  N         47.3500   14.4150   26.2320 N.3    20  LEU20      -0.1231
     39  CA        47.1020   13.3560   25.2640 C.3    20  LEU20       0.1693
     40  C         47.8720   12.0940   25.5800 C.2    20  LEU20       0.2591
     41  O         47.3330   10.9980   25.4470 O.2    20  LEU20      -0.2718
     42  CB        47.4500   13.8190   23.8470 C.3    20  LEU20       0.0284
     43  CG        46.4920   14.8570   23.2520 C.3    20  LEU20       0.0019
     44  CD1       47.1420   15.5020   22.0530 C.3    20  LEU20       0.0001
     45  CD2       45.1640   14.2020   22.8890 C.3    20  LEU20       0.0001
     46  N         49.1280   12.2330   25.9890 N.am   21  VAL21      -0.1980
     47  CA        49.9240   11.0600   26.3230 C.3    21  VAL21       0.1595
     48  C         49.2460   10.3590   27.4940 C.2    21  VAL21       0.2287
     49  O         49.1410    9.1320   27.5370 O.2    21  VAL21      -0.2864
     50  CB        51.3710   11.4580   26.6830 C.3    21  VAL21       0.0276
     51  CG1       52.1350   10.2670   27.2270 C.3    21  VAL21       0.0022
     52  CG2       52.0730   11.9840   25.4350 C.3    21  VAL21       0.0022
     53  N         46.2350    8.4850   26.0730 N.3    24  ALA24      -0.1231
     54  CA        46.6690    7.3410   25.2990 C.3    24  ALA24       0.1694
     55  C         47.0600    6.2010   26.2150 C.2    24  ALA24       0.2592
     56  O         46.6470    5.0620   26.0060 O.2    24  ALA24      -0.2718
     57  CB        47.8430    7.7220   24.4140 C.3    24  ALA24       0.0304
     58  N         47.8590    6.4910   27.2380 N.am   25  PHE25      -0.1976
     59  CA        48.2700    5.4200   28.1350 C.3    25  PHE25       0.1639
     60  C         47.1020    4.8710   28.9230 C.2    25  PHE25       0.2290
     61  O         46.9530    3.6610   29.0490 O.2    25  PHE25      -0.2864
     62  CB        49.3740    5.8760   29.0900 C.3    25  PHE25       0.0560
     63  CG        50.7420    5.8060   28.4940 C.ar   25  PHE25      -0.0200
     64  CD1       51.1760    4.6450   27.8670 C.ar   25  PHE25      -0.0042
     65  CD2       51.5970    6.8990   28.5410 C.ar   25  PHE25      -0.0042
     66  CE1       52.4450    4.5720   27.2880 C.ar   25  PHE25      -0.0003
     67  CE2       52.8730    6.8360   27.9610 C.ar   25  PHE25      -0.0003
     68  CZ        53.2930    5.6690   27.3330 C.ar   25  PHE25      -0.0000
     69  N         58.0330   10.5200   29.1600 N.3    44  VAL44      -0.1245
     70  CA        57.8840   10.7310   27.7260 C.3    44  VAL44       0.1561
     71  C         58.0300   12.2020   27.3760 C.2    44  VAL44       0.2260
     72  O         58.5760   12.5410   26.3240 O.2    44  VAL44      -0.2867
     73  CB        56.5240   10.2060   27.2050 C.3    44  VAL44       0.0252
     74  CG1       56.2980   10.6750   25.7710 C.3    44  VAL44       0.0019
     75  CG2       56.5000    8.6800   27.2620 C.3    44  VAL44       0.0019
     76  N         61.6070   12.9960   27.4000 N.3    47  PHE47      -0.1241
     77  CA        62.1760   12.4830   26.1650 C.3    47  PHE47       0.1605
     78  C         61.9640   13.4940   25.0450 C.2    47  PHE47       0.2264
     79  O         62.9110   13.9200   24.3850 O.2    47  PHE47      -0.2867
     80  CB        61.5100   11.1690   25.7750 C.3    47  PHE47       0.0534
     81  CG        62.0440   10.5830   24.5030 C.ar   47  PHE47      -0.0203
     82  CD1       63.3940   10.2560   24.3850 C.ar   47  PHE47      -0.0042
     83  CD2       61.2010   10.3570   23.4170 C.ar   47  PHE47      -0.0042
     84  CE1       63.8970    9.7120   23.2030 C.ar   47  PHE47      -0.0003
     85  CE2       61.6920    9.8120   22.2280 C.ar   47  PHE47      -0.0003
     86  CZ        63.0420    9.4900   22.1220 C.ar   47  PHE47      -0.0000
     87  N         56.5760    7.0670   16.2800 N.3    64  LEU64      -0.1245
     88  CA        55.7340    7.0910   17.4670 C.3    64  LEU64       0.1561
     89  C         55.2620    5.7150   17.9170 C.2    64  LEU64       0.2260
     90  O         55.3500    5.3960   19.1010 O.2    64  LEU64      -0.2867
     91  CB        54.5380    8.0120   17.2430 C.3    64  LEU64       0.0270
     92  CG        54.9470    9.4880   17.1580 C.3    64  LEU64       0.0019
     93  CD1       53.7780   10.3120   16.6630 C.3    64  LEU64       0.0001
     94  CD2       55.4340    9.9770   18.5220 C.3    64  LEU64       0.0001
     95  N         58.1750    4.0560   19.5840 N.3    67  LEU67      -0.1231
     96  CA        58.4330    4.6560   20.8800 C.3    67  LEU67       0.1693
     97  C         57.3550    4.2590   21.8740 C.2    67  LEU67       0.2592
     98  O         57.6540    3.7160   22.9300 O.2    67  LEU67      -0.2718
     99  CB        58.5100    6.1780   20.7500 C.3    67  LEU67       0.0284
    100  CG        59.7800    6.7270   20.0770 C.3    67  LEU67       0.0019
    101  CD1       59.5970    8.2070   19.7860 C.3    67  LEU67       0.0001
    102  CD2       61.0020    6.4890   20.9690 C.3    67  LEU67       0.0001
    103  N         56.1010    4.5170   21.5210 N.am   68  PHE68      -0.1976
    104  CA        54.9640    4.1800   22.3780 C.3    68  PHE68       0.1639
    105  C         54.9500    2.7250   22.8280 C.2    68  PHE68       0.2290
    106  O         54.7400    2.4320   23.9990 O.2    68  PHE68      -0.2864
    107  CB        53.6520    4.4620   21.6570 C.3    68  PHE68       0.0560
    108  CG        52.4410    4.2660   22.5230 C.ar   68  PHE68      -0.0200
    109  CD1       52.1910    5.1240   23.5960 C.ar   68  PHE68      -0.0042
    110  CD2       51.5560    3.2190   22.2820 C.ar   68  PHE68      -0.0042
    111  CE1       51.0730    4.9440   24.4220 C.ar   68  PHE68      -0.0003
    112  CE2       50.4310    3.0250   23.1010 C.ar   68  PHE68      -0.0003
    113  CZ        50.1890    3.8920   24.1770 C.ar   68  PHE68      -0.0000
    114  N         57.8190    1.8720   25.5740 N.3    71  LYS71      -0.1245
    115  CA        57.5060    2.3410   26.9230 C.3    71  LYS71       0.1561
    116  C         56.4080    1.5000   27.5520 C.2    71  LYS71       0.2260
    117  O         56.3530    1.3260   28.7690 O.2    71  LYS71      -0.2867
    118  CB        57.0800    3.8250   26.9000 C.3    71  LYS71       0.0271
    119  CG        58.1160    4.7950   27.4830 C.3    71  LYS71       0.0035
    120  CD        58.2920    4.5670   28.9820 C.3    71  LYS71       0.0206
    121  CE        59.6380    5.0830   29.5090 C.3    71  LYS71       0.1093
    122  NZ        59.8010    6.5670   29.4450 N.3    71  LYS71      -0.1314
    123  N         37.8100    9.1570   20.9380 N.3   148  TYR148     -0.1241
    124  CA        38.8960    9.9080   20.2950 C.3   148  TYR148      0.1605
    125  C         39.5740   10.8740   21.2950 C.2   148  TYR148      0.2264
    126  O         38.9640   11.8400   21.7640 O.2   148  TYR148     -0.2867
    127  CB        38.3380   10.6730   19.0920 C.3   148  TYR148      0.0534
    128  CG        39.3780   11.3630   18.2540 C.ar  148  TYR148     -0.0201
    129  CD1       40.4350   10.6450   17.6810 C.ar  148  TYR148     -0.0009
    130  CD2       39.3130   12.7310   18.0330 C.ar  148  TYR148     -0.0009
    131  CE1       41.3970   11.2760   16.9120 C.ar  148  TYR148      0.0417
    132  CE2       40.2730   13.3810   17.2620 C.ar  148  TYR148      0.0417
    133  CZ        41.3100   12.6450   16.7060 C.ar  148  TYR148      0.1957
    134  OH        42.2490   13.2920   15.9410 O.3   148  TYR148     -0.2866
    135  N         41.6510   13.5160   21.3080 N.3   150  PRO150     -0.2116
    136  CA        41.5090   14.9660   21.2100 C.3   150  PRO150      0.1372
    137  C         40.1440   15.4720   21.6550 C.2   150  PRO150      0.2244
    138  O         40.0350   16.5700   22.1910 O.2   150  PRO150     -0.2868
    139  CB        41.7870   15.2350   19.7350 C.3   150  PRO150      0.0268
    140  CG        42.7430   14.1410   19.3750 C.3   150  PRO150      0.0207
    141  CD        42.1010   12.9460   20.0280 C.3   150  PRO150      0.0892
    142  N         44.8600    5.2480   17.3560 N.3   248  LEU248     -0.1231
    143  CA        44.8480    6.6820   17.6010 C.3   248  LEU248      0.1693
    144  C         45.7400    7.5140   16.6850 C.2   248  LEU248      0.2591
    145  O         45.2760    8.4770   16.0720 O.2   248  LEU248     -0.2718
    146  CB        45.2180    6.9430   19.0630 C.3   248  LEU248      0.0284
    147  CG        45.4460    8.3680   19.5770 C.3   248  LEU248      0.0019
    148  CD1       44.3010    9.2830   19.1770 C.3   248  LEU248      0.0001
    149  CD2       45.5710    8.3100   21.0860 C.3   248  LEU248      0.0001
    150  N         47.0120    7.1500   16.5800 N.am  249  LEU249     -0.1980
    151  CA        47.9300    7.9160   15.7480 C.3   249  LEU249      0.1596
    152  C         47.5380    8.0110   14.2860 C.2   249  LEU249      0.2287
    153  O         47.4230    9.1080   13.7190 O.2   249  LEU249     -0.2864
    154  CB        49.3300    7.3370   15.8420 C.3   249  LEU249      0.0297
    155  CG        49.9330    7.4070   17.2410 C.3   249  LEU249      0.0022
    156  CD1       51.3570    6.8540   17.2070 C.3   249  LEU249      0.0001
    157  CD2       49.9100    8.8500   17.7220 C.3   249  LEU249      0.0001
    158  N         44.4540   10.0800   14.0050 N.3   252  ALA252     -0.1245
    159  CA        44.7120   11.5110   14.1600 C.3   252  ALA252      0.1562
    160  C         45.3520   12.1590   12.9280 C.2   252  ALA252      0.2260
    161  O         45.0020   13.2780   12.5600 O.2   252  ALA252     -0.2867
    162  CB        45.5890   11.7510   15.3880 C.3   252  ALA252      0.0290
    163  N         42.8990   12.4990   10.0570 N.3   255  ARG255     -0.1231
    164  CA        41.9890   13.6000   10.3410 C.3   255  ARG255      0.1694
    165  C         42.6850   14.9310   10.1200 C.2   255  ARG255      0.2591
    166  O         42.0640   15.8990    9.6880 O.2   255  ARG255     -0.2718
    167  CB        41.4590   13.5290   11.7800 C.3   255  ARG255      0.0321
    168  CG        40.4220   12.4380   11.9920 C.3   255  ARG255      0.0489
    169  CD        39.7970   12.4480   13.3830 C.3   255  ARG255      0.2205
    170  NE        39.2340   13.7460   13.7340 N.pl3 255  ARG255     -0.0865
    171  CZ        38.1220   13.9120   14.4430 C.cat 255  ARG255      0.5346
    172  NH1       37.4390   12.8550   14.8730 N.pl3 255  ARG255      0.1354
    173  NH2       37.7010   15.1340   14.7380 N.pl3 255  ARG255      0.1354
    174  N         43.9780   14.9800   10.4140 N.am  256  ALA256     -0.1980
    175  CA        44.7320   16.2100   10.2360 C.3   256  ALA256      0.1597
    176  C         44.7940   16.5530    8.7540 C.2   256  ALA256      0.2287
    177  O         44.4220   17.6560    8.3340 O.2   256  ALA256     -0.2864
    178  CB        46.1250   16.0460   10.7830 C.3   256  ALA256      0.0319
    179  N         41.5970   17.8250    7.2280 N.3   259  ALA259     -0.1245
    180  CA        41.2020   19.1520    7.6460 C.3   259  ALA259      0.1562
    181  C         41.9830   20.2180    6.8730 C.2   259  ALA259      0.2260
    182  O         41.4100   21.1900    6.3880 O.2   259  ALA259     -0.2867
    183  CB        41.4240   19.3010    9.1480 C.3   259  ALA259      0.0290
    184  N         45.7860   23.3390   15.0990 N.3   281  LEU281     -0.1231
    185  CA        45.8090   21.9350   14.7020 C.3   281  LEU281      0.1693
    186  C         44.8570   21.0160   15.4690 C.2   281  LEU281      0.2591
    187  O         44.0050   20.3300   14.8960 O.2   281  LEU281     -0.2718
    188  CB        47.2260   21.4070   14.8720 C.3   281  LEU281      0.0284
    189  CG        47.4770   19.9530   14.4900 C.3   281  LEU281      0.0019
    190  CD1       47.8160   19.8590   12.9950 C.3   281  LEU281      0.0001
    191  CD2       48.6250   19.4190   15.3290 C.3   281  LEU281      0.0001
    192  N         45.0290   21.0020   16.7780 N.am  282  LEU282     -0.1980
    193  CA        44.2370   20.1720   17.6530 C.3   282  LEU282      0.1596
    194  C         42.7250   20.2980   17.4940 C.2   282  LEU282      0.2287
    195  O         42.0030   19.3300   17.7140 O.2   282  LEU282     -0.2864
    196  CB        44.6280   20.4870   19.0890 C.3   282  LEU282      0.0297
    197  CG        44.0460   19.6320   20.1980 C.3   282  LEU282      0.0022
    198  CD1       44.5840   18.2370   20.0980 C.3   282  LEU282      0.0001
    199  CD2       44.4080   20.2600   21.5290 C.3   282  LEU282      0.0001
    200  N         40.9690   21.8300   14.5380 N.3   284  LYS284     -0.1231
    201  CA        40.3820   21.9910   13.2200 C.3   284  LYS284      0.1693
    202  C         39.3060   20.9720   12.8660 C.2   284  LYS284      0.2593
    203  O         38.1730   21.3640   12.5770 O.2   284  LYS284     -0.2718
    204  CB        41.4670   22.0180   12.1570 C.3   284  LYS284      0.0285
    205  CG        42.2410   23.3170   12.1610 C.3   284  LYS284      0.0035
    206  CD        43.1330   23.4320   10.9500 C.3   284  LYS284      0.0206
    207  CE        43.9740   24.6870   11.0300 C.3   284  LYS284      0.1093
    208  NZ        44.7750   24.8750    9.7960 N.3   284  LYS284     -0.1314
    209  N         39.6560   19.6820   12.8890 N.am  285  SER285     -0.1938
    210  CA        38.7110   18.5960   12.5910 C.3   285  SER285      0.2055
    211  C         37.4080   18.7480   13.3520 C.2   285  SER285      0.2643
    212  O         36.3300   18.8220   12.7690 O.2   285  SER285     -0.2714
    213  CB        39.2870   17.2310   12.9840 C.3   285  SER285      0.2130
    214  OG        40.1640   16.7130   12.0100 O.3   285  SER285     -0.2179
    215  N         37.5240   18.7510   14.6690 N.am  286  HIS286     -0.1973
    216  CA        36.3770   18.8690   15.5440 C.3   286  HIS286      0.1656
    217  C         35.4670   20.0150   15.1290 C.2   286  HIS286      0.2291
    218  O         34.2420   19.8610   15.0530 O.2   286  HIS286     -0.2864
    219  CB        36.8440   19.0840   16.9820 C.3   286  HIS286      0.0771
    220  CG        35.7240   19.2990   17.9450 C.ar  286  HIS286      0.0820
    221  ND1       34.8640   18.2890   18.3200 N.ar  286  HIS286     -0.2267
    222  CD2       35.2690   20.4250   18.5440 C.ar  286  HIS286      0.1154
    223  CE1       33.9230   18.7860   19.1050 C.ar  286  HIS286      0.1986
    224  NE2       34.1460   20.0800   19.2550 N.ar  286  HIS286     -0.2212
@<TRIPOS>BOND
     1   182   181    2
     2   181   180    1
     3   179   180    1
     4   180   183    1
     5   177   176    2
     6   176   175    1
     7   166   165    2
     8   208   207    1
     9   163   164    1
    10   165   164    1
    11   165   174   am
    12   175   174    1
    13   175   178    1
    14   164   167    1
    15   206   207    1
    16   206   205    1
    17   167   168    1
    18   168   169    1
    19   214   213    1
    20   204   205    1
    21   204   201    1
    22   161   160    2
    23   203   202    2
    24   210   209    1
    25   210   213    1
    26   210   211    1
    27   212   211    2
    28   202   209   am
    29   202   201    1
    30   160   159    1
    31   190   189    1
    32   201   200    1
    33   211   215   am
    34   169   170    1
    35    18    16    1
    36   153   152    2
    37   170   171    2
    38   158   159    1
    39   159   162    1
    40    17    16    1
    41    16    15    2
    42   152   151    1
    43   171   173    1
    44   171   172    1
    45   189   188    1
    46   189   191    1
    47   215   216    1
    48   185   188    1
    49   185   184    1
    50   185   186    1
    51   187   186    2
    52    15    14    1
    53   218   217    2
    54   217   216    1
    55   186   192   am
    56   216   219    1
    57   151   154    1
    58   151   150    1
    59   154   155    1
    60    14    13    1
    61   134   133    1
    62   145   144    2
    63    87    88    1
    64   150   144   am
    65    93    92    1
    66   144   143    1
    67   133   131   ar
    68   133   132   ar
    69   192   193    1
    70     8     9    1
    71    13    12    1
    72   131   129   ar
    73   219   220    1
    74    92    91    1
    75    92    94    1
    76   156   155    1
    77   155   157    1
    78    91    88    1
    79   132   130   ar
    80     1     2    1
    81   142   143    1
    82     9    12    1
    83     9    10    1
    84    88    89    1
    85   194   193    1
    86   194   195    2
    87   143   146    1
    88   193   196    1
    89   129   128   ar
    90    89    90    2
    91   220   221   ar
    92   220   222   ar
    93   130   128   ar
    94   128   127    1
    95   221   223   ar
    96   222   224   ar
    97    10    11    2
    98     2     3    1
    99     2     5    1
   100     3     4    2
   101    19    20    1
   102   146   147    1
   103    25    24    1
   104   196   197    1
   105   127   124    1
   106   223   224   ar
   107     7     5    1
   108   148   147    1
   109   140   139    1
   110   140   141    1
   111   147   149    1
   112    95    96    1
   113   139   136    1
   114     5     6    1
   115   101   100    1
   116    20    23    1
   117    20    21    1
   118    26    24    1
   119   141   135    1
   120   100    99    1
   121   100   102    1
   122    23    24    1
   123   198   197    1
   124   197   199    1
   125   124   123    1
   126   124   125    1
   127    99    96    1
   128    96    97    1
   129    21    22    2
   130   136   135    1
   131   136   137    1
   132   125   126    2
   133   103    97   am
   134   103   104    1
   135   137   138    2
   136   107   104    1
   137   107   108    1
   138    97    98    2
   139    44    43    1
   140    86    85   ar
   141    86    84   ar
   142    85    83   ar
   143   110   108   ar
   144   110   112   ar
   145   104   105    1
   146    35    33   ar
   147    35    37   ar
   148   108   109   ar
   149    33    32   ar
   150   105   106    2
   151    45    43    1
   152   112   113   ar
   153    84    82   ar
   154    43    42    1
   155    83    81   ar
   156    37    36   ar
   157   109   111   ar
   158    42    39    1
   159    32    31    1
   160    32    34   ar
   161   113   111   ar
   162    79    78    2
   163    82    81   ar
   164    57    54    1
   165    31    28    1
   166    81    80    1
   167    28    27    1
   168    28    29    1
   169    36    34   ar
   170    78    77    1
   171    39    40    1
   172    39    38    1
   173    54    53    1
   174    54    55    1
   175    52    50    1
   176    41    40    2
   177   114   115    1
   178    40    46   am
   179    30    29    2
   180    74    73    1
   181    80    77    1
   182    46    47    1
   183    56    55    2
   184    77    76    1
   185    55    58   am
   186    47    50    1
   187    47    48    1
   188    72    71    2
   189    50    51    1
   190   118   115    1
   191   118   119    1
   192   115   116    1
   193    73    75    1
   194    73    70    1
   195    58    59    1
   196    66    68   ar
   197    66    64   ar
   198    68    67   ar
   199    71    70    1
   200   119   120    1
   201    48    49    2
   202   116   117    2
   203    70    69    1
   204    64    63   ar
   205    67    65   ar
   206    59    60    1
   207    59    62    1
   208    63    65   ar
   209    63    62    1
   210    60    61    2
   211   120   121    1
   212   122   121    1
