@<TRIPOS>MOLECULE
tmp/1gnjA04.pdb
 189 181 0 0 0
SMALL
GASTEIGER

@<TRIPOS>ATOM
      1  N          7.4330   16.5900   31.3120 N.3   399  TYR399     -0.1227
      2  CA         6.9770   15.5700   32.2470 C.3   399  TYR399      0.1736
      3  C          5.6830   14.8720   31.8350 C.2   399  TYR399      0.2595
      4  O          5.6670   13.6560   31.6650 O.2   399  TYR399     -0.2718
      5  CB         6.8270   16.1860   33.6470 C.3   399  TYR399      0.0548
      6  CG         6.3480   15.2040   34.6810 C.ar  399  TYR399     -0.0200
      7  CD1        7.1240   14.0950   35.0250 C.ar  399  TYR399     -0.0009
      8  CD2        5.0960   15.3500   35.2770 C.ar  399  TYR399     -0.0009
      9  CE1        6.6620   13.1470   35.9360 C.ar  399  TYR399      0.0417
     10  CE2        4.6190   14.4080   36.1950 C.ar  399  TYR399      0.0417
     11  CZ         5.4080   13.3060   36.5190 C.ar  399  TYR399      0.1957
     12  OH         4.9400   12.3650   37.4140 O.3   399  TYR399     -0.2866
     13  N          4.6000   15.6320   31.6940 N.am  400  LYS400     -0.1980
     14  CA         3.3260   15.0500   31.2960 C.3   400  LYS400      0.1596
     15  C          3.4800   14.4060   29.9250 C.2   400  LYS400      0.2287
     16  O          2.7580   13.4700   29.5780 O.2   400  LYS400     -0.2864
     17  CB         2.2200   16.1160   31.2470 C.3   400  LYS400      0.0298
     18  CG         1.6920   16.5190   32.6020 C.3   400  LYS400      0.0038
     19  CD         0.9450   15.3690   33.2410 C.3   400  LYS400      0.0206
     20  CE         0.5230   15.7010   34.6530 C.3   400  LYS400      0.1093
     21  NZ         1.7080   15.9220   35.5200 N.3   400  LYS400     -0.1314
     22  N          4.8100   10.9770   30.3440 N.3   403  ASN403     -0.1240
     23  CA         3.8070   10.0310   30.8040 C.3   403  ASN403      0.1653
     24  C          2.9400    9.5250   29.6530 C.2   403  ASN403      0.2266
     25  O          2.4470    8.3990   29.6740 O.2   403  ASN403     -0.2867
     26  CB         2.9620   10.6750   31.8930 C.3   403  ASN403      0.1155
     27  CG         3.7950   11.1040   33.0830 C.2   403  ASN403      0.2627
     28  OD1        4.9500   10.6950   33.2240 O.2   403  ASN403     -0.2716
     29  ND2        3.2130   11.9230   33.9530 N.am  403  ASN403     -0.0877
     30  N         -2.6010   -8.7100   39.6770 N.3   500  PHE500     -0.1241
     31  CA        -2.5120   -7.6730   40.6910 C.3   500  PHE500      0.1605
     32  C         -1.5900   -8.0260   41.8430 C.2   500  PHE500      0.2264
     33  O         -1.5700   -9.1590   42.3230 O.2   500  PHE500     -0.2867
     34  CB        -3.8880   -7.3470   41.2620 C.3   500  PHE500      0.0534
     35  CG        -3.8610   -6.2580   42.2900 C.ar  500  PHE500     -0.0203
     36  CD1       -3.5250   -4.9560   41.9320 C.ar  500  PHE500     -0.0042
     37  CD2       -4.1410   -6.5330   43.6240 C.ar  500  PHE500     -0.0042
     38  CE1       -3.4690   -3.9430   42.8890 C.ar  500  PHE500     -0.0003
     39  CE2       -4.0870   -5.5260   44.5900 C.ar  500  PHE500     -0.0003
     40  CZ        -3.7500   -4.2300   44.2230 C.ar  500  PHE500     -0.0000
     41  N          1.3230   -1.2080   44.3220 N.3   505  PHE505     -0.1241
     42  CA         0.5290    0.0060   44.3890 C.3   505  PHE505      0.1605
     43  C          0.3810    0.5610   45.8000 C.2   505  PHE505      0.2264
     44  O         -0.6340    1.1580   46.1440 O.2   505  PHE505     -0.2867
     45  CB        -0.8360   -0.2580   43.7470 C.3   505  PHE505      0.0534
     46  CG        -0.7470   -0.6440   42.2900 C.ar  505  PHE505     -0.0203
     47  CD1       -0.4410    0.3120   41.3210 C.ar  505  PHE505     -0.0042
     48  CD2       -0.9120   -1.9700   41.8930 C.ar  505  PHE505     -0.0042
     49  CE1       -0.2990   -0.0480   39.9850 C.ar  505  PHE505     -0.0003
     50  CE2       -0.7710   -2.3380   40.5580 C.ar  505  PHE505     -0.0003
     51  CZ        -0.4640   -1.3760   39.6020 C.ar  505  PHE505     -0.0000
     52  N          1.9660    3.1180   48.7420 N.3   507  PHE507     -0.1241
     53  CA         2.8290    4.2870   48.8720 C.3   507  PHE507      0.1605
     54  C          2.9350    4.8710   50.2710 C.2   507  PHE507      0.2264
     55  O          1.9310    5.0810   50.9550 O.2   507  PHE507     -0.2867
     56  CB         2.3660    5.3820   47.9210 C.3   507  PHE507      0.0534
     57  CG         2.0730    4.8910   46.5410 C.ar  507  PHE507     -0.0203
     58  CD1        0.8850    4.2140   46.2690 C.ar  507  PHE507     -0.0042
     59  CD2        2.9910    5.0850   45.5130 C.ar  507  PHE507     -0.0042
     60  CE1        0.6130    3.7370   44.9940 C.ar  507  PHE507     -0.0003
     61  CE2        2.7320    4.6120   44.2320 C.ar  507  PHE507     -0.0003
     62  CZ         1.5400    3.9360   43.9720 C.ar  507  PHE507     -0.0000
     63  N          6.4560    7.7440   40.3920 N.3   523  LYS523     -0.1231
     64  CA         5.1120    7.8650   39.8340 C.3   523  LYS523      0.1693
     65  C          5.0400    7.1620   38.4770 C.2   523  LYS523      0.2591
     66  O          4.1000    6.4150   38.1890 O.2   523  LYS523     -0.2718
     67  CB         4.7410    9.3400   39.6550 C.3   523  LYS523      0.0285
     68  CG         4.3260   10.0740   40.9300 C.3   523  LYS523      0.0035
     69  CD         4.2070   11.5790   40.6710 C.3   523  LYS523      0.0206
     70  CE         3.5550   12.3110   41.8370 C.3   523  LYS523      0.1093
     71  NZ         3.4680   13.7900   41.6140 N.3   523  LYS523     -0.1314
     72  N          6.0520    7.4030   37.6530 N.am  524  GLN524     -0.1979
     73  CA         6.1020    6.8230   36.3250 C.3   524  GLN524      0.1601
     74  C          6.2270    5.3120   36.3560 C.2   524  GLN524      0.2287
     75  O          5.7130    4.6210   35.4660 O.2   524  GLN524     -0.2864
     76  CB         7.2560    7.4430   35.5280 C.3   524  GLN524      0.0394
     77  CG         7.1220    8.9500   35.4290 C.3   524  GLN524      0.0908
     78  CD         8.2030    9.6070   34.6030 C.2   524  GLN524      0.2608
     79  OE1        9.3970    9.3860   34.8240 O.2   524  GLN524     -0.2717
     80  NE2        7.7900   10.4370   33.6480 N.am  524  GLN524     -0.0878
     81  N          5.0000    3.4060   38.7030 N.3   526  ALA526     -0.1231
     82  CA         3.6920    2.8990   39.0890 C.3   526  ALA526      0.1694
     83  C          2.7690    2.9340   37.8790 C.2   526  ALA526      0.2591
     84  O          1.9300    2.0480   37.6820 O.2   526  ALA526     -0.2718
     85  CB         3.1110    3.7430   40.2250 C.3   526  ALA526      0.0304
     86  N          2.9470    3.9650   37.0640 N.am  527  LEU527     -0.1980
     87  CA         2.1400    4.1430   35.8790 C.3   527  LEU527      0.1596
     88  C          2.2870    2.9740   34.9140 C.2   527  LEU527      0.2287
     89  O          1.2850    2.4190   34.4570 O.2   527  LEU527     -0.2864
     90  CB         2.5190    5.4490   35.1950 C.3   527  LEU527      0.0297
     91  CG         1.5890    5.8680   34.0610 C.3   527  LEU527      0.0022
     92  CD1        0.1480    5.7090   34.4910 C.3   527  LEU527      0.0001
     93  CD2        1.8860    7.3000   33.6710 C.3   527  LEU527      0.0001
     94  N          0.6120    0.0180   36.1710 N.3   530  LEU530     -0.1245
     95  CA        -0.8340    0.1850   36.0870 C.3   530  LEU530      0.1561
     96  C         -1.2940   -0.2860   34.7090 C.2   530  LEU530      0.2260
     97  O         -2.2430   -1.0530   34.5860 O.2   530  LEU530     -0.2867
     98  CB        -1.2330    1.6550   36.2980 C.3   530  LEU530      0.0270
     99  CG        -2.6970    1.9920   35.9760 C.3   530  LEU530      0.0019
    100  CD1       -3.6200    0.9220   36.5570 C.3   530  LEU530      0.0001
    101  CD2       -3.0460    3.3660   36.5150 C.3   530  LEU530      0.0001
    102  N         -1.1490   -3.9880   34.0770 N.3   533  HIS533     -0.1226
    103  CA        -2.1750   -4.7330   34.7930 C.3   533  HIS533      0.1752
    104  C         -3.5600   -4.5440   34.1680 C.2   533  HIS533      0.2595
    105  O         -4.3960   -5.4480   34.1940 O.2   533  HIS533     -0.2718
    106  CB        -2.1950   -4.3000   36.2610 C.3   533  HIS533      0.0759
    107  CG        -3.3120   -4.9080   37.0470 C.ar  533  HIS533      0.0818
    108  ND1       -3.5170   -6.2700   37.1140 N.ar  533  HIS533     -0.2268
    109  CD2       -4.3010   -4.3400   37.7780 C.ar  533  HIS533      0.1154
    110  CE1       -4.5860   -6.5140   37.8510 C.ar  533  HIS533      0.1986
    111  NE2       -5.0810   -5.3600   38.2660 N.ar  533  HIS533     -0.2212
    112  N         -3.7900   -3.3580   33.6150 N.am  534  LYS534     -0.1980
    113  CA        -5.0520   -3.0320   32.9660 C.3   534  LYS534      0.1596
    114  C         -4.7570   -2.3800   31.6180 C.2   534  LYS534      0.2287
    115  O         -4.9950   -1.1920   31.4220 O.2   534  LYS534     -0.2864
    116  CB        -5.8630   -2.0840   33.8470 C.3   534  LYS534      0.0298
    117  CG        -6.3750   -2.7340   35.1160 C.3   534  LYS534      0.0038
    118  CD        -7.1400   -4.0040   34.7820 C.3   534  LYS534      0.0206
    119  CE        -7.8150   -4.6080   36.0040 C.3   534  LYS534      0.1093
    120  NZ        -8.4130   -5.9370   35.6810 N.3   534  LYS534     -0.1314
    121  N         -7.9040    7.9020   37.0220 N.3   545  VAL545     -0.1231
    122  CA        -7.1010    7.4020   38.1170 C.3   545  VAL545      0.1692
    123  C         -5.9570    8.3670   38.4010 C.2   545  VAL545      0.2591
    124  O         -5.7900    8.8100   39.5330 O.2   545  VAL545     -0.2718
    125  CB        -6.5320    6.0130   37.7920 C.3   545  VAL545      0.0266
    126  CG1       -5.5420    5.5950   38.8630 C.3   545  VAL545      0.0020
    127  CG2       -7.6670    5.0080   37.6900 C.3   545  VAL545      0.0020
    128  N         -5.1840    8.7030   37.3710 N.am  546  MET546     -0.1979
    129  CA        -4.0590    9.6120   37.5440 C.3   546  MET546      0.1605
    130  C         -4.4710   10.8600   38.2960 C.2   546  MET546      0.2287
    131  O         -3.7140   11.3830   39.1040 O.2   546  MET546     -0.2864
    132  CB        -3.4570   10.0090   36.1950 C.3   546  MET546      0.0413
    133  CG        -2.7390    8.8780   35.4760 C.3   546  MET546      0.0598
    134  SD        -1.5580    9.4760   34.2470 S.3   546  MET546     -0.1393
    135  CE        -2.6790   10.0520   32.9500 C.3   546  MET546      0.0692
    136  N         -5.0180   10.1470   41.8690 N.3   549  PHE549     -0.1227
    137  CA        -3.6990    9.9820   42.4550 C.3   549  PHE549      0.1736
    138  C         -3.1000   11.3540   42.7400 C.2   549  PHE549      0.2595
    139  O         -2.3140   11.5190   43.6660 O.2   549  PHE549     -0.2718
    140  CB        -2.8010    9.2100   41.4920 C.3   549  PHE549      0.0547
    141  CG        -1.5180    8.7400   42.1050 C.ar  549  PHE549     -0.0202
    142  CD1       -1.5160    7.7210   43.0480 C.ar  549  PHE549     -0.0042
    143  CD2       -0.3070    9.3190   41.7420 C.ar  549  PHE549     -0.0042
    144  CE1       -0.3240    7.2830   43.6210 C.ar  549  PHE549     -0.0003
    145  CE2        0.8880    8.8910   42.3060 C.ar  549  PHE549     -0.0003
    146  CZ         0.8810    7.8700   43.2460 C.ar  549  PHE549     -0.0000
    147  N         -3.4740   12.3370   41.9320 N.am  550  ALA550     -0.1980
    148  CA        -2.9780   13.6960   42.1080 C.3   550  ALA550      0.1597
    149  C         -3.3270   14.1770   43.5120 C.2   550  ALA550      0.2287
    150  O         -2.4470   14.5560   44.2880 O.2   550  ALA550     -0.2864
    151  CB        -3.6010   14.6210   41.0670 C.3   550  ALA550      0.0319
    152  N         -8.1280    4.1990   47.6030 N.3   573  LEU573     -0.1231
    153  CA        -7.7600    4.4000   46.2050 C.3   573  LEU573      0.1693
    154  C         -7.7580    3.0920   45.4160 C.2   573  LEU573      0.2591
    155  O         -8.4470    2.9720   44.4080 O.2   573  LEU573     -0.2718
    156  CB        -6.3810    5.0530   46.1110 C.3   573  LEU573      0.0284
    157  CG        -6.0660    5.6570   44.7440 C.3   573  LEU573      0.0019
    158  CD1       -7.0510    6.7760   44.4510 C.3   573  LEU573      0.0001
    159  CD2       -4.6470    6.1810   44.7280 C.3   573  LEU573      0.0001
    160  N         -6.9810    2.1170   45.8750 N.am  574  VAL574     -0.1980
    161  CA        -6.9040    0.8280   45.2060 C.3   574  VAL574      0.1595
    162  C         -8.2850    0.2260   45.0100 C.2   574  VAL574      0.2287
    163  O         -8.5800   -0.3350   43.9560 O.2   574  VAL574     -0.2864
    164  CB        -6.0370   -0.1600   46.0100 C.3   574  VAL574      0.0276
    165  CG1       -6.1670   -1.5730   45.4460 C.3   574  VAL574      0.0022
    166  CG2       -4.6010    0.2830   45.9550 C.3   574  VAL574      0.0022
    167  N        -10.2780    2.5780   42.3440 N.3   577  SER577     -0.1202
    168  CA        -9.6430    2.2980   41.0740 C.3   577  SER577      0.2020
    169  C         -9.9360    0.8860   40.5820 C.2   577  SER577      0.2618
    170  O        -10.4170    0.7090   39.4670 O.2   577  SER577     -0.2717
    171  CB        -8.1350    2.5070   41.1920 C.3   577  SER577      0.2103
    172  OG        -7.8270    3.8730   41.3990 O.3   577  SER577     -0.2182
    173  N         -9.6490   -0.1190   41.4020 N.am  578  GLN578     -0.1979
    174  CA        -9.9020   -1.4960   40.9900 C.3   578  GLN578      0.1601
    175  C        -11.2980   -1.6270   40.3790 C.2   578  GLN578      0.2287
    176  O        -11.4880   -2.3090   39.3680 O.2   578  GLN578     -0.2864
    177  CB        -9.7700   -2.4580   42.1830 C.3   578  GLN578      0.0394
    178  CG        -8.3490   -3.0290   42.4250 C.3   578  GLN578      0.0908
    179  CD        -7.8840   -4.1120   41.4390 C.2   578  GLN578      0.2608
    180  OE1       -6.7270   -4.1000   40.9470 O.2   578  GLN578     -0.2717
    181  NE2       -8.7320   -5.0940   41.2270 N.am  578  GLN578     -0.0878
    182  N        -12.1650   -0.0860   36.8410 N.3   581  LEU581     -0.1245
    183  CA       -11.4490   -0.7240   35.7450 C.3   581  LEU581      0.1561
    184  C        -11.7620   -2.2140   35.6280 C.2   581  LEU581      0.2260
    185  O        -10.9670   -2.9840   35.0840 O.2   581  LEU581     -0.2867
    186  CB        -9.9370   -0.5170   35.9190 C.3   581  LEU581      0.0270
    187  CG        -9.4190    0.9230   36.0600 C.3   581  LEU581      0.0019
    188  CD1       -7.9080    0.9070   36.1880 C.3   581  LEU581      0.0001
    189  CD2       -9.8230    1.7540   34.8590 C.3   581  LEU581      0.0001
@<TRIPOS>BOND
     1    16    15    2
     2    24    25    2
     3    24    23    1
     4    15    14    1
     5    22    23    1
     6    23    26    1
     7    17    14    1
     8    17    18    1
     9    14    13    1
    10     1     2    1
    11   115   114    2
    12   114   113    1
    13     4     3    2
    14    13     3   am
    15     3     2    1
    16    26    27    1
    17     2     5    1
    18    18    19    1
    19   135   134    1
    20   113   112    1
    21   113   116    1
    22    27    28    2
    23    27    29   am
    24    19    20    1
    25   112   104   am
    26     5     6    1
    27    80    78   am
    28    93    91    1
    29   116   117    1
    30    91    92    1
    31    91    90    1
    32   102   103    1
    33   104   105    2
    34   104   103    1
    35   134   133    1
    36    89    88    2
    37    97    96    2
    38    78    79    2
    39    78    77    1
    40    20    21    1
    41     6     7   ar
    42     6     8   ar
    43    96    95    1
    44   118   117    1
    45   118   119    1
    46   103   106    1
    47   189   187    1
    48    88    87    1
    49     7     9   ar
    50   185   184    2
    51    90    87    1
    52     8    10   ar
    53    77    76    1
    54    75    74    2
    55   133   132    1
    56    76    73    1
    57   184   183    1
    58   120   119    1
    59   183   186    1
    60   183   182    1
    61    87    86    1
    62   186   187    1
    63     9    11   ar
    64    99    98    1
    65    99   101    1
    66    99   100    1
    67   187   188    1
    68    95    94    1
    69    95    98    1
    70   132   129    1
    71    10    11   ar
    72   106   107    1
    73    73    74    1
    74    73    72    1
    75    11    12    1
    76   121   122    1
    77   107   108   ar
    78   107   109   ar
    79    86    83   am
    80   108   110   ar
    81   128   129    1
    82   128   123   am
    83   129   130    1
    84    72    65   am
    85    84    83    2
    86   127   125    1
    87   109   111   ar
    88   125   122    1
    89   125   126    1
    90   110   111   ar
    91    83    82    1
    92   122   123    1
    93    66    65    2
    94   130   131    2
    95   123   124    2
    96    65    64    1
    97    81    82    1
    98    82    85    1
    99   176   175    2
   100   170   169    2
   101    51    49   ar
   102    51    50   ar
   103    67    64    1
   104    67    68    1
   105    30    31    1
   106    64    63    1
   107    49    47   ar
   108   175   174    1
   109    50    48   ar
   110   169   168    1
   111   169   173   am
   112    69    68    1
   113    69    70    1
   114    31    34    1
   115    31    32    1
   116   180   179    2
   117   174   173    1
   118   174   177    1
   119   151   148    1
   120   168   171    1
   121   168   167    1
   122   171   172    1
   123   181   179   am
   124    34    35    1
   125    47    46   ar
   126   179   178    1
   127   140   141    1
   128   140   137    1
   129    71    70    1
   130   143   141   ar
   131   143   145   ar
   132    32    33    2
   133   136   137    1
   134    48    46   ar
   135    36    35   ar
   136    36    38   ar
   137   147   148    1
   138   147   138   am
   139   141   142   ar
   140   148   149    1
   141   177   178    1
   142    46    45    1
   143    35    37   ar
   144   145   146   ar
   145   137   138    1
   146   138   139    2
   147    38    40   ar
   148   142   144   ar
   149   146   144   ar
   150   149   150    2
   151    37    39   ar
   152    45    42    1
   153   163   162    2
   154    62    61   ar
   155    62    60   ar
   156    40    39   ar
   157    61    59   ar
   158    41    42    1
   159    42    43    1
   160   155   154    2
   161   158   157    1
   162   159   157    1
   163   157   156    1
   164    60    58   ar
   165   162   161    1
   166   161   160    1
   167   161   164    1
   168   154   160   am
   169   154   153    1
   170   165   164    1
   171    59    57   ar
   172    43    44    2
   173   166   164    1
   174   156   153    1
   175   153   152    1
   176    58    57   ar
   177    57    56    1
   178    56    53    1
   179    52    53    1
   180    53    54    1
   181    54    55    2
