@<TRIPOS>MOLECULE
tmp/1gnjA05.pdb
 166 154 0 0 0
SMALL
GASTEIGER

@<TRIPOS>ATOM
      1  N         26.5380   -2.8930    7.8070 N.3   204  PHE204     -0.1241
      2  CA        26.1400   -2.4010    6.5030 C.3   204  PHE204      0.1605
      3  C         27.1680   -2.2550    5.3960 C.2   204  PHE204      0.2264
      4  O         26.8010   -2.2130    4.2270 O.2   204  PHE204     -0.2867
      5  CB        25.3680   -1.1070    6.7190 C.3   204  PHE204      0.0534
      6  CG        24.2060   -1.2740    7.6530 C.ar  204  PHE204     -0.0203
      7  CD1       23.9360   -0.3320    8.6340 C.ar  204  PHE204     -0.0042
      8  CD2       23.3810   -2.3970    7.5530 C.ar  204  PHE204     -0.0042
      9  CE1       22.8530   -0.5070    9.5080 C.ar  204  PHE204     -0.0003
     10  CE2       22.2980   -2.5820    8.4170 C.ar  204  PHE204     -0.0003
     11  CZ        22.0310   -1.6380    9.3960 C.ar  204  PHE204     -0.0000
     12  N         29.5370    0.5980    1.0320 N.3   207  ARG207     -0.1231
     13  CA        28.5730    1.2250    0.1410 C.3   207  ARG207      0.1694
     14  C         27.6200    2.1210    0.9160 C.2   207  ARG207      0.2591
     15  O         27.4920    3.3120    0.6210 O.2   207  ARG207     -0.2718
     16  CB        27.7890    0.1610   -0.6370 C.3   207  ARG207      0.0321
     17  CG        26.8250    0.7300   -1.6540 C.3   207  ARG207      0.0489
     18  CD        26.5090   -0.2770   -2.7530 C.3   207  ARG207      0.2205
     19  NE        25.6410    0.2930   -3.7870 N.pl3 207  ARG207     -0.0865
     20  CZ        24.3200    0.4320   -3.6790 C.cat 207  ARG207      0.5346
     21  NH1       23.6780    0.0390   -2.5810 N.pl3 207  ARG207      0.1354
     22  NH2       23.6360    0.9850   -4.6700 N.pl3 207  ARG207      0.1354
     23  N         26.9710    1.5370    1.9140 N.am  208  ALA208     -0.1980
     24  CA        26.0240    2.2550    2.7480 C.3   208  ALA208      0.1597
     25  C         26.6520    3.4630    3.4570 C.2   208  ALA208      0.2287
     26  O         26.0210    4.4970    3.6180 O.2   208  ALA208     -0.2864
     27  CB        25.4310    1.3040    3.7670 C.3   208  ALA208      0.0319
     28  N         29.2700    5.2750    2.3980 N.3   210  LYS210     -0.1231
     29  CA        29.5240    6.2910    1.3900 C.3   210  LYS210      0.1693
     30  C         28.2450    7.0430    1.0740 C.2   210  LYS210      0.2591
     31  O         28.2500    8.2680    0.9470 O.2   210  LYS210     -0.2718
     32  CB        30.0520    5.6660    0.1030 C.3   210  LYS210      0.0285
     33  CG        31.4410    5.1010    0.2060 C.3   210  LYS210      0.0035
     34  CD        31.8760    4.5300   -1.1320 C.3   210  LYS210      0.0206
     35  CE        33.3140    4.0250   -1.1050 C.3   210  LYS210      0.1093
     36  NZ        33.6070    3.3250   -2.3860 N.3   210  LYS210     -0.1314
     37  N         27.1500    6.3050    0.9420 N.am  211  ALA211     -0.1980
     38  CA        25.8770    6.9260    0.6270 C.3   211  ALA211      0.1597
     39  C         25.4710    7.8590    1.7590 C.2   211  ALA211      0.2287
     40  O         25.1010    9.0100    1.5320 O.2   211  ALA211     -0.2864
     41  CB        24.8100    5.8590    0.3940 C.3   211  ALA211      0.0319
     42  N         27.6350   10.9160    1.4420 N.3   214  VAL214     -0.1245
     43  CA        27.3230   11.8120    0.3430 C.3   214  VAL214      0.1561
     44  C         26.2050   12.7450    0.7630 C.2   214  VAL214      0.2260
     45  O         26.2970   13.9630    0.6230 O.2   214  VAL214     -0.2867
     46  CB        26.8610   11.0300   -0.9030 C.3   214  VAL214      0.0252
     47  CG1       26.1950   11.9740   -1.9080 C.3   214  VAL214      0.0019
     48  CG2       28.0390   10.3640   -1.5460 C.3   214  VAL214      0.0019
     49  N         30.1800   18.0680   -7.4000 N.3   226  PHE226     -0.1241
     50  CA        30.1190   16.6480   -7.1030 C.3   226  PHE226      0.1605
     51  C         31.4960   16.0070   -7.0740 C.2   226  PHE226      0.2264
     52  O         31.7180   15.0400   -6.3480 O.2   226  PHE226     -0.2867
     53  CB        29.2550   15.9240   -8.1250 C.3   226  PHE226      0.0534
     54  CG        29.1380   14.4510   -7.8720 C.ar  226  PHE226     -0.0203
     55  CD1       28.4630   13.9790   -6.7490 C.ar  226  PHE226     -0.0042
     56  CD2       29.7050   13.5340   -8.7510 C.ar  226  PHE226     -0.0042
     57  CE1       28.3530   12.6160   -6.5040 C.ar  226  PHE226     -0.0003
     58  CE2       29.6020   12.1710   -8.5160 C.ar  226  PHE226     -0.0003
     59  CZ        28.9220   11.7080   -7.3870 C.ar  226  PHE226     -0.0000
     60  N         32.9240   13.9100   -3.9560 N.3   230  SER230     -0.1217
     61  CA        33.3210   12.5220   -4.1170 C.3   230  SER230      0.1889
     62  C         34.6730   12.3720   -3.4770 C.2   230  SER230      0.2288
     63  O         34.9050   11.4470   -2.7080 O.2   230  SER230     -0.2866
     64  CB        33.4110   12.1420   -5.5900 C.3   230  SER230      0.2089
     65  OG        32.1420   12.2530   -6.1990 O.3   230  SER230     -0.2183
     66  N         34.2080   12.2380    0.2040 N.3   233  VAL233     -0.1231
     67  CA        33.5890   11.0200    0.7060 C.3   233  VAL233      0.1692
     68  C         34.5900    9.8810    0.7570 C.2   233  VAL233      0.2592
     69  O         34.6020    9.0950    1.6950 O.2   233  VAL233     -0.2718
     70  CB        32.3920   10.5910   -0.1630 C.3   233  VAL233      0.0266
     71  CG1       31.8620    9.2310    0.3050 C.3   233  VAL233      0.0020
     72  CG2       31.2920   11.6430   -0.0720 C.3   233  VAL233      0.0020
     73  N         35.4230    9.7960   -0.2670 N.am  234  THR234     -0.1953
     74  CA        36.4390    8.7640   -0.3400 C.3   234  THR234      0.1897
     75  C         37.3810    8.8740    0.8610 C.2   234  THR234      0.2313
     76  O         37.5390    7.9190    1.6330 O.2   234  THR234     -0.2863
     77  CB        37.2550    8.8940   -1.6470 C.3   234  THR234      0.1794
     78  OG1       36.4000    8.6530   -2.7720 O.3   234  THR234     -0.2208
     79  CG2       38.4110    7.8940   -1.6620 C.3   234  THR234      0.0378
     80  N         26.3640    3.3220   -9.1770 N.3   322  ASP322     -0.1225
     81  CA        26.5150    3.9980   -7.9040 C.3   322  ASP322      0.1805
     82  C         26.8360    5.4620   -8.0920 C.2   322  ASP322      0.2597
     83  O         26.3620    6.3010   -7.3360 O.2   322  ASP322     -0.2718
     84  CB        27.5950    3.3330   -7.0630 C.3   322  ASP322      0.1424
     85  CG        27.1310    2.0260   -6.4670 C.2   322  ASP322      0.3668
     86  OD1       25.9010    1.8270   -6.3740 O.co2 322  ASP322     -0.2456
     87  OD2       27.9860    1.2020   -6.0790 O.co2 322  ASP322     -0.2456
     88  N         27.6220    5.7760   -9.1130 N.am  323  VAL323     -0.1980
     89  CA        27.9900    7.1640   -9.3600 C.3   323  VAL323      0.1595
     90  C         26.7610    7.9880   -9.7030 C.2   323  VAL323      0.2287
     91  O         26.5780    9.1020   -9.2030 O.2   323  VAL323     -0.2864
     92  CB        28.9850    7.2950  -10.5230 C.3   323  VAL323      0.0276
     93  CG1       29.4360    8.7420  -10.6560 C.3   323  VAL323      0.0022
     94  CG2       30.1600    6.3940  -10.2970 C.3   323  VAL323      0.0022
     95  N         23.6670    7.2630   -8.9580 N.3   325  LEU325     -0.1231
     96  CA        22.8580    7.3590   -7.7600 C.3   325  LEU325      0.1693
     97  C         23.4900    8.3290   -6.7650 C.2   325  LEU325      0.2592
     98  O         22.7920    9.0120   -6.0170 O.2   325  LEU325     -0.2718
     99  CB        22.7100    5.9900   -7.1350 C.3   325  LEU325      0.0284
    100  CG        21.8170    5.0420   -7.9300 C.3   325  LEU325      0.0019
    101  CD1       21.9730    3.6300   -7.4120 C.3   325  LEU325      0.0001
    102  CD2       20.3800    5.4880   -7.8140 C.3   325  LEU325      0.0001
    103  N         24.8200    8.3830   -6.7570 N.am  326  GLY326     -0.1957
    104  CA        25.5120    9.2890   -5.8610 C.3   326  GLY326      0.1869
    105  C         25.1490   10.6970   -6.2800 C.2   326  GLY326      0.2309
    106  O         24.9020   11.5750   -5.4520 O.2   326  GLY326     -0.2863
    107  N         21.6730   11.6430   -5.0270 N.3   329  LEU329     -0.1245
    108  CA        21.7450   12.0570   -3.6260 C.3   329  LEU329      0.1561
    109  C         22.3450   13.4430   -3.4900 C.2   329  LEU329      0.2260
    110  O         21.7690   14.3120   -2.8550 O.2   329  LEU329     -0.2867
    111  CB        22.5980   11.0850   -2.8040 C.3   329  LEU329      0.0270
    112  CG        21.8950    9.8950   -2.1760 C.3   329  LEU329      0.0019
    113  CD1       22.9390    8.9740   -1.5910 C.3   329  LEU329      0.0001
    114  CD2       20.9030   10.3680   -1.1140 C.3   329  LEU329      0.0001
    115  N         18.1190    8.7090    2.0930 N.3   345  LEU345     -0.1245
    116  CA        18.5360    7.3830    1.6720 C.3   345  LEU345      0.1561
    117  C         17.3320    6.5880    1.1780 C.2   345  LEU345      0.2260
    118  O         17.4320    5.8470    0.1990 O.2   345  LEU345     -0.2867
    119  CB        19.2080    6.6460    2.8170 C.3   345  LEU345      0.0270
    120  CG        20.5750    7.1620    3.2500 C.3   345  LEU345      0.0019
    121  CD1       21.0230    6.3680    4.4680 C.3   345  LEU345      0.0001
    122  CD2       21.5700    7.0360    2.1230 C.3   345  LEU345      0.0001
    123  N         16.5590    7.7170   -2.3440 N.3   348  ALA348     -0.1231
    124  CA        17.5620    7.1920   -3.2630 C.3   348  ALA348      0.1694
    125  C         17.3450    5.7040   -3.5340 C.2   348  ALA348      0.2591
    126  O         17.5770    5.2220   -4.6370 O.2   348  ALA348     -0.2718
    127  CB        18.9610    7.4280   -2.7000 C.3   348  ALA348      0.0304
    128  N         16.8900    4.9830   -2.5240 N.am  349  LYS349     -0.1980
    129  CA        16.6570    3.5550   -2.6630 C.3   349  LYS349      0.1596
    130  C         15.4190    3.3340   -3.5380 C.2   349  LYS349      0.2287
    131  O         15.4340    2.5060   -4.4450 O.2   349  LYS349     -0.2864
    132  CB        16.5030    2.9290   -1.2600 C.3   349  LYS349      0.0298
    133  CG        16.2880    1.4040   -1.1800 C.3   349  LYS349      0.0038
    134  CD        17.2490    0.5860   -2.0480 C.3   349  LYS349      0.0206
    135  CE        16.5620    0.1470   -3.3510 C.3   349  LYS349      0.1093
    136  NZ        17.3980   -0.6770   -4.2840 N.3   349  LYS349     -0.1314
    137  N         16.3340    3.8700   -7.0040 N.3   352  GLU352     -0.1245
    138  CA        17.1800    2.7880   -7.5070 C.3   352  GLU352      0.1567
    139  C         16.3160    1.5930   -7.8910 C.2   352  GLU352      0.2260
    140  O         16.5400    0.9440   -8.9100 O.2   352  GLU352     -0.2867
    141  CB        18.1990    2.3580   -6.4370 C.3   352  GLU352      0.0388
    142  CG        18.8100    0.9840   -6.6930 C.3   352  GLU352      0.1160
    143  CD        19.8380    0.5600   -5.6590 C.2   352  GLU352      0.3649
    144  OE1       19.5460    0.6230   -4.4460 O.co2 352  GLU352     -0.2457
    145  OE2       20.9430    0.1440   -6.0610 O.co2 352  GLU352     -0.2457
    146  N         16.8500   -3.1180    7.9950 N.3   478  SER478     -0.1202
    147  CA        17.8410   -2.2640    7.3400 C.3   478  SER478      0.2020
    148  C         17.9210   -0.9170    8.0450 C.2   478  SER478      0.2619
    149  O         16.9590   -0.4770    8.6780 O.2   478  SER478     -0.2717
    150  CB        17.4800   -2.0360    5.8710 C.3   478  SER478      0.2103
    151  OG        16.3350   -1.2100    5.7530 O.3   478  SER478     -0.2182
    152  N         19.0700   -0.2620    7.9280 N.am  479  LEU479     -0.1965
    153  CA        19.2690    1.0390    8.5610 C.3   479  LEU479      0.1728
    154  C         18.1500    2.0020    8.1620 C.2   479  LEU479      0.2616
    155  O         17.7760    2.8900    8.9240 O.2   479  LEU479     -0.2715
    156  CB        20.6260    1.6300    8.1480 C.3   479  LEU479      0.0311
    157  CG        20.8270    3.0860    8.6820 C.3   479  LEU479      0.0022
    158  CD1       21.0020    3.0820   10.1800 C.3   479  LEU479      0.0001
    159  CD2       22.0120    3.6710    7.9300 C.3   479  LEU479      0.0001
    160  N         17.6190    1.7980    6.9620 N.am  480  VAL480     -0.1977
    161  CA        16.5570    2.6330    6.4200 C.3   480  VAL480      0.1596
    162  C         15.1460    2.2880    6.9150 C.2   480  VAL480      0.2287
    163  O         14.2600    3.1410    6.9140 O.2   480  VAL480     -0.2864
    164  CB        16.6090    2.5950    4.8610 C.3   480  VAL480      0.0276
    165  CG1       15.2240    2.6430    4.2690 C.3   480  VAL480      0.0022
    166  CG2       17.4330    3.7610    4.3500 C.3   480  VAL480      0.0022
@<TRIPOS>BOND
     1    93    92    1
     2    92    94    1
     3    92    89    1
     4    90    89    1
     5    90    91    2
     6    89    88    1
     7    80    81    1
     8    88    82   am
     9    95    96    1
    10   140   139    2
    11    56    58   ar
    12    56    54   ar
    13    58    59   ar
    14    53    54    1
    15    53    50    1
    16    82    81    1
    17    82    83    2
    18   100   102    1
    19   100   101    1
    20   100    99    1
    21    81    84    1
    22   139   138    1
    23    54    55   ar
    24    96    99    1
    25    96    97    1
    26   138   137    1
    27   138   141    1
    28    49    50    1
    29    59    57   ar
    30    50    51    1
    31    51    52    2
    32    84    85    1
    33    97   103   am
    34    97    98    2
    35   103   104    1
    36    55    57   ar
    37   142   141    1
    38   142   143    1
    39    85    86   ar
    40    85    87   ar
    41   105   104    1
    42   105   106    2
    43    65    64    1
    44   145   143   ar
    45   143   144   ar
    46    64    61    1
    47   107   108    1
    48    22    20    1
    49   126   125    2
    50   131   130    2
    51   136   135    1
    52    61    60    1
    53    61    62    1
    54    19    20    2
    55    19    18    1
    56    20    21    1
    57   108   109    1
    58   108   111    1
    59   130   129    1
    60   125   124    1
    61   125   128   am
    62   109   110    2
    63    62    63    2
    64   135   134    1
    65   124   127    1
    66   124   123    1
    67   111   112    1
    68    78    77    1
    69    18    17    1
    70   129   128    1
    71   129   132    1
    72    36    35    1
    73   112   113    1
    74   112   114    1
    75   134   133    1
    76    47    46    1
    77    79    77    1
    78    17    16    1
    79    77    74    1
    80    48    46    1
    81   132   133    1
    82    34    35    1
    83    34    33    1
    84    46    43    1
    85    16    13    1
    86    74    73    1
    87    74    75    1
    88    73    68   am
    89    70    72    1
    90    70    71    1
    91    70    67    1
    92    32    33    1
    93    32    29    1
    94    13    14    1
    95    13    12    1
    96   118   117    2
    97    66    67    1
    98    43    44    1
    99    43    42    1
   100    41    38    1
   101    15    14    2
   102    45    44    2
   103    38    37    1
   104    38    39    1
   105    67    68    1
   106    68    69    2
   107    75    76    2
   108    14    23   am
   109    37    30   am
   110    31    30    2
   111    30    29    1
   112   117   116    1
   113    29    28    1
   114    40    39    2
   115   116   115    1
   116   116   119    1
   117    23    24    1
   118   122   120    1
   119    24    25    1
   120    24    27    1
   121   119   120    1
   122   120   121    1
   123    25    26    2
   124     4     3    2
   125   165   164    1
   126   166   164    1
   127   164   161    1
   128     3     2    1
   129   151   150    1
   130   150   147    1
   131   161   162    1
   132   161   160    1
   133     2     5    1
   134     2     1    1
   135     5     6    1
   136   163   162    2
   137   160   154   am
   138   147   146    1
   139   147   148    1
   140     8     6   ar
   141     8    10   ar
   142     6     7   ar
   143   152   148   am
   144   152   153    1
   145   159   157    1
   146   148   149    2
   147   156   153    1
   148   156   157    1
   149   154   153    1
   150   154   155    2
   151    10    11   ar
   152     7     9   ar
   153   157   158    1
   154    11     9   ar
