@<TRIPOS>MOLECULE
tmp/1gnmB00.pdb
 80 75 0 0 0
SMALL
GASTEIGER

@<TRIPOS>ATOM
      1  N        -16.3510   21.3840   24.9870 N.3    25  ASP25      -0.1239
      2  CA       -15.0240   21.2500   25.5530 C.3    25  ASP25       0.1674
      3  C        -14.0360   22.2350   24.9820 C.2    25  ASP25       0.2266
      4  O        -13.3630   22.0190   23.9640 O.2    25  ASP25      -0.2867
      5  CB       -14.5760   19.8080   25.2930 C.3    25  ASP25       0.1410
      6  CG       -13.3060   19.4380   25.9780 C.2    25  ASP25       0.3668
      7  OD1      -12.7200   20.3110   26.6510 O.co2  25  ASP25      -0.2456
      8  OD2      -12.7030   18.3700   25.9500 O.co2  25  ASP25      -0.2456
      9  N        -11.1110   22.8420   25.8180 N.3    27  GLY27      -0.1210
     10  CA        -9.7560   22.3100   25.8680 C.3    27  GLY27       0.1956
     11  C         -9.5510   21.3260   24.7380 C.2    27  GLY27       0.2612
     12  O         -8.4900   20.7460   24.6140 O.2    27  GLY27      -0.2717
     13  N        -10.5470   21.0950   23.9050 N.am   28  ALA28      -0.1965
     14  CA       -10.4220   20.1650   22.7670 C.3    28  ALA28       0.1728
     15  C        -10.3370   20.9970   21.5060 C.2    28  ALA28       0.2616
     16  O        -11.2020   21.8070   21.1940 O.2    28  ALA28      -0.2715
     17  CB       -11.6210   19.2120   22.8190 C.3    28  ALA28       0.0334
     18  N         -9.2630   20.9340   20.7460 N.am   29  ASP29      -0.1957
     19  CA        -9.0340   21.5830   19.4750 C.3    29  ASP29       0.1840
     20  C        -10.0050   21.0880   18.4190 C.2    29  ASP29       0.2622
     21  O        -10.4290   21.8840   17.6240 O.2    29  ASP29      -0.2715
     22  CB        -7.6710   21.1910   18.8700 C.3    29  ASP29       0.1450
     23  CG        -6.5610   21.7180   19.7800 C.2    29  ASP29       0.3671
     24  OD1       -6.7740   22.7900   20.4120 O.co2  29  ASP29      -0.2456
     25  OD2       -5.5290   21.0170   19.8060 O.co2  29  ASP29      -0.2456
     26  N        -10.2850   19.7940   18.4850 N.am   30  ASP30      -0.1971
     27  CA       -11.1230   18.9250   17.7060 C.3    30  ASP30       0.1709
     28  C        -12.4190   18.3490   18.2810 C.2    30  ASP30       0.2293
     29  O        -12.6090   18.3310   19.4900 O.2    30  ASP30      -0.2864
     30  CB       -10.4000   17.5420   17.5250 C.3    30  ASP30       0.1436
     31  CG        -9.1760   17.9130   16.6960 C.2    30  ASP30       0.3671
     32  OD1       -9.5840   18.4500   15.6490 O.co2  30  ASP30      -0.2456
     33  OD2       -8.0280   17.7420   17.1440 O.co2  30  ASP30      -0.2456
     34  N        -14.5560   15.0050   18.7890 N.3    32  VAL32      -0.1245
     35  CA       -14.3440   13.5730   18.9120 C.3    32  VAL32       0.1561
     36  C        -15.6320   12.9560   19.4710 C.2    32  VAL32       0.2260
     37  O        -16.1220   13.2120   20.5580 O.2    32  VAL32      -0.2867
     38  CB       -13.0980   13.1870   19.7200 C.3    32  VAL32       0.0252
     39  CG1      -13.2770   13.4050   21.1930 C.3    32  VAL32       0.0019
     40  CG2      -12.8280   11.6870   19.6280 C.3    32  VAL32       0.0019
     41  N         -4.4680   10.1420   14.5060 N.3    46  MET46      -0.1230
     42  CA        -4.3530    9.8350   15.9440 C.3    46  MET46       0.1702
     43  C         -4.2080   11.1700   16.6950 C.2    46  MET46       0.2592
     44  O         -3.5390   12.1000   16.2750 O.2    46  MET46      -0.2718
     45  CB        -3.1870    8.9890   16.2950 C.3    46  MET46       0.0401
     46  CG        -3.2200    7.4810   16.1270 C.3    46  MET46       0.0596
     47  SD        -1.4580    7.0130   16.2610 S.3    46  MET46      -0.1393
     48  CE        -1.5770    5.9150   17.6720 C.3    46  MET46       0.0692
     49  N         -4.8870   11.2900   17.8130 N.am   47  ILE47      -0.1966
     50  CA        -4.9130   12.4420   18.6660 C.3    47  ILE47       0.1727
     51  C         -4.4990   12.0670   20.0860 C.2    47  ILE47       0.2617
     52  O         -4.5860   10.9060   20.4890 O.2    47  ILE47      -0.2715
     53  CB        -6.3230   13.0580   18.7970 C.3    47  ILE47       0.0290
     54  CG1       -7.2920   12.0530   19.4000 C.3    47  ILE47       0.0022
     55  CG2       -6.8720   13.4920   17.4460 C.3    47  ILE47       0.0023
     56  CD1       -8.7070   12.5220   19.6090 C.3    47  ILE47       0.0001
     57  N         -4.0700   13.0580   20.8390 N.am   48  GLY48      -0.1940
     58  CA        -3.6900   12.8490   22.2140 C.3    48  GLY48       0.2014
     59  C         -4.4990   13.5800   23.2870 C.2    48  GLY48       0.2639
     60  O         -5.0370   14.6610   23.0230 O.2    48  GLY48      -0.2714
     61  N         -4.6070   12.9490   24.4660 N.am   49  GLY49      -0.1939
     62  CA        -5.0550   13.7980   25.5990 C.3    49  GLY49       0.2014
     63  C         -4.3290   13.3310   26.8600 C.2    49  GLY49       0.2638
     64  O         -3.2340   12.8050   26.8550 O.2    49  GLY49      -0.2714
     65  N         -4.9550   13.4930   27.9880 N.am   50  ILE50      -0.1977
     66  CA        -4.6060   13.0410   29.3530 C.3    50  ILE50       0.1596
     67  C         -4.7320   11.5410   29.3450 C.2    50  ILE50       0.2287
     68  O         -5.8350   11.0360   29.0190 O.2    50  ILE50      -0.2864
     69  CB        -5.6890   13.8970   30.0600 C.3    50  ILE50       0.0276
     70  CG1       -5.1420   14.7240   31.2240 C.3    50  ILE50       0.0022
     71  CG2       -6.9400   13.1590   30.4840 C.3    50  ILE50       0.0022
     72  CD1       -4.7530   16.1670   30.8690 C.3    50  ILE50       0.0001
     73  N        -17.2350   14.9670   22.5310 N.3    84  ILE84      -0.1245
     74  CA       -16.6840   16.2740   22.6760 C.3    84  ILE84       0.1561
     75  C        -16.9170   17.1330   21.4040 C.2    84  ILE84       0.2260
     76  O        -16.5990   16.7440   20.2950 O.2    84  ILE84      -0.2867
     77  CB       -15.1360   16.2690   22.7350 C.3    84  ILE84       0.0252
     78  CG1      -14.4610   15.2960   23.6940 C.3    84  ILE84       0.0019
     79  CG2      -14.5590   17.6130   23.1340 C.3    84  ILE84       0.0019
     80  CD1      -12.9350   15.4550   23.4280 C.3    84  ILE84       0.0001
@<TRIPOS>BOND
     1    41    42    1
     2    32    31   ar
     3    42    45    1
     4    42    43    1
     5    46    47    1
     6    46    45    1
     7    47    48    1
     8    44    43    2
     9    43    49   am
    10    31    33   ar
    11    31    30    1
    12    55    53    1
    13    30    27    1
    14    21    20    2
    15    27    28    1
    16    27    26    1
    17    49    50    1
    18    28    29    2
    19    20    26   am
    20    20    19    1
    21    50    53    1
    22    50    51    1
    23    34    35    1
    24    53    54    1
    25    22    19    1
    26    22    23    1
    27    35    36    1
    28    35    38    1
    29    54    56    1
    30    36    37    2
    31    19    18    1
    32    40    38    1
    33    38    39    1
    34    23    25   ar
    35    23    24   ar
    36    51    52    2
    37    51    57   am
    38    76    75    2
    39    18    15   am
    40    57    58    1
    41    16    15    2
    42    75    74    1
    43    15    14    1
    44    58    59    1
    45    73    74    1
    46    74    77    1
    47    77    79    1
    48    77    78    1
    49    14    17    1
    50    14    13    1
    51    60    59    2
    52    59    61   am
    53    80    78    1
    54    13    11   am
    55     4     3    2
    56    61    62    1
    57    12    11    2
    58    11    10    1
    59     3     2    1
    60     1     2    1
    61     5     2    1
    62     5     6    1
    63    62    63    1
    64     9    10    1
    65     8     6   ar
    66     6     7   ar
    67    64    63    2
    68    63    65   am
    69    65    66    1
    70    68    67    2
    71    67    66    1
    72    66    69    1
    73    69    71    1
    74    69    70    1
    75    72    70    1
