@<TRIPOS>MOLECULE
tmp/1gnmA00.pdb
 74 68 0 0 0
SMALL
GASTEIGER

@<TRIPOS>ATOM
      1  N         -6.0340   28.8040   21.2390 N.3     8  ARG8       -0.1245
      2  CA        -6.3140   28.0550   22.5070 C.3     8  ARG8        0.1563
      3  C         -6.5650   29.0840   23.6070 C.2     8  ARG8        0.2260
      4  O         -5.8930   30.1540   23.5510 O.2     8  ARG8       -0.2867
      5  CB        -5.1550   27.1290   22.8240 C.3     8  ARG8        0.0307
      6  CG        -5.2330   25.6920   22.3080 C.3     8  ARG8        0.0489
      7  CD        -4.1100   24.8130   22.8550 C.3     8  ARG8        0.2205
      8  NE        -3.8940   23.5580   22.1650 N.pl3   8  ARG8       -0.0865
      9  CZ        -2.8550   22.7750   21.8540 C.cat   8  ARG8        0.5346
     10  NH1       -1.6100   23.1210   22.2060 N.pl3   8  ARG8        0.1354
     11  NH2       -2.9840   21.5660   21.2640 N.pl3   8  ARG8        0.1354
     12  N         -4.5330   26.2310   30.3460 N.3    23  LEU23      -0.1245
     13  CA        -5.6560   26.2250   29.4100 C.3    23  LEU23       0.1561
     14  C         -6.9670   26.3280   30.1630 C.2    23  LEU23       0.2260
     15  O         -7.0700   25.6370   31.1910 O.2    23  LEU23      -0.2867
     16  CB        -5.6340   24.8450   28.7350 C.3    23  LEU23       0.0270
     17  CG        -5.5440   24.9010   27.2080 C.3    23  LEU23       0.0019
     18  CD1       -5.9540   23.5160   26.6940 C.3    23  LEU23       0.0001
     19  CD2       -6.5420   25.8770   26.6760 C.3    23  LEU23       0.0001
     20  N        -10.3810   24.9330   30.5440 N.3    25  ASP25      -0.1239
     21  CA       -11.0000   23.7470   29.9440 C.3    25  ASP25       0.1674
     22  C        -12.3490   23.3860   30.4940 C.2    25  ASP25       0.2266
     23  O        -12.4800   22.7660   31.5380 O.2    25  ASP25      -0.2867
     24  CB        -9.9370   22.6440   30.0550 C.3    25  ASP25       0.1410
     25  CG       -10.3280   21.4250   29.2760 C.2    25  ASP25       0.3668
     26  OD1      -11.3260   21.3730   28.5470 O.co2  25  ASP25      -0.2456
     27  OD2       -9.7030   20.3540   29.3870 O.co2  25  ASP25      -0.2456
     28  N        -14.2810   20.9980   29.6360 N.3    27  GLY27      -0.1210
     29  CA       -14.4530   19.5620   29.5710 C.3    27  GLY27       0.1956
     30  C        -13.7130   18.8630   30.6930 C.2    27  GLY27       0.2611
     31  O        -13.7740   17.6410   30.8040 O.2    27  GLY27      -0.2717
     32  N        -13.0180   19.6560   31.5090 N.am   28  ALA28      -0.1979
     33  CA       -12.2250   19.1360   32.6230 C.3    28  ALA28       0.1597
     34  C        -13.0560   19.2880   33.8980 C.2    28  ALA28       0.2287
     35  O        -13.4750   20.3970   34.1950 O.2    28  ALA28      -0.2864
     36  CB       -10.8990   19.8870   32.6990 C.3    28  ALA28       0.0319
     37  N         -8.8860   11.2650   27.6640 N.3    50  ILE50      -0.1245
     38  CA        -9.2040   10.5960   26.4000 C.3    50  ILE50       0.1561
     39  C         -8.2690    9.4320   26.1700 C.2    50  ILE50       0.2260
     40  O         -8.7930    8.3480   25.8500 O.2    50  ILE50      -0.2867
     41  CB        -9.2570   11.5650   25.2190 C.3    50  ILE50       0.0252
     42  CG1      -10.4840   11.1500   24.3790 C.3    50  ILE50       0.0019
     43  CG2       -8.0120   11.5240   24.3460 C.3    50  ILE50       0.0019
     44  CD1      -11.1550   12.2930   23.6590 C.3    50  ILE50       0.0001
     45  N         -0.1270   15.3830   32.9960 N.3    80  THR80      -0.1204
     46  CA        -1.0120   15.8990   31.9490 C.3    80  THR80       0.1979
     47  C         -0.0760   16.5180   30.9150 C.2    80  THR80       0.2460
     48  O          1.0460   16.8470   31.2710 O.2    80  THR80      -0.2732
     49  CB        -1.9310   16.9530   32.5790 C.3    80  THR80       0.1783
     50  OG1       -2.6950   17.6190   31.5720 O.3    80  THR80      -0.2211
     51  CG2       -1.1030   17.8830   33.4120 C.3    80  THR80       0.0376
     52  N         -0.4930   16.6020   29.6540 N.am   81  PRO81      -0.2717
     53  CA         0.3330   17.2120   28.6190 C.3    81  PRO81       0.1535
     54  C          0.3620   18.7280   28.7830 C.2    81  PRO81       0.2598
     55  O          1.3800   19.3740   28.5300 O.2    81  PRO81      -0.2715
     56  CB        -0.2270   16.6840   27.2880 C.3    81  PRO81       0.0310
     57  CG        -1.6100   16.2680   27.6410 C.3    81  PRO81       0.0237
     58  CD        -1.4520   15.6630   29.0190 C.3    81  PRO81       0.0939
     59  N         -0.6850   19.3670   29.2600 N.am   82  ASP82      -0.1972
     60  CA        -0.7940   20.7870   29.4980 C.3    82  ASP82       0.1709
     61  C         -1.3930   21.1050   30.8590 C.2    82  ASP82       0.2293
     62  O         -1.9800   20.2310   31.4750 O.2    82  ASP82      -0.2864
     63  CB        -1.8620   21.3110   28.5080 C.3    82  ASP82       0.1436
     64  CG        -1.2620   21.9880   27.2930 C.2    82  ASP82       0.3671
     65  OD1       -0.7450   23.1290   27.4690 O.co2  82  ASP82      -0.2456
     66  OD2       -1.3600   21.3400   26.2050 O.co2  82  ASP82      -0.2456
     67  N         -4.2470   22.4060   33.0090 N.3    84  ILE84      -0.1245
     68  CA        -5.6970   22.4330   32.7800 C.3    84  ILE84       0.1561
     69  C         -6.4320   23.0590   33.9640 C.2    84  ILE84       0.2260
     70  O         -6.3320   22.6510   35.1090 O.2    84  ILE84      -0.2867
     71  CB        -6.0840   20.9670   32.4790 C.3    84  ILE84       0.0252
     72  CG1       -5.9880   20.6250   31.0010 C.3    84  ILE84       0.0019
     73  CG2       -7.4710   20.5800   32.9070 C.3    84  ILE84       0.0019
     74  CD1       -6.0800   19.1120   30.8280 C.3    84  ILE84       0.0001
@<TRIPOS>BOND
     1     1     2    1
     2    11     9    1
     3     9     8    2
     4     9    10    1
     5     8     7    1
     6     6     5    1
     7     6     7    1
     8     2     5    1
     9     2     3    1
    10     4     3    2
    11    44    42    1
    12    43    41    1
    13    42    41    1
    14    41    38    1
    15    40    39    2
    16    39    38    1
    17    66    64   ar
    18    38    37    1
    19    19    17    1
    20    18    17    1
    21    17    16    1
    22    56    57    1
    23    56    53    1
    24    64    65   ar
    25    64    63    1
    26    57    58    1
    27    63    60    1
    28    55    54    2
    29    26    25   ar
    30    53    54    1
    31    53    52    1
    32    16    13    1
    33    54    59   am
    34    58    52    1
    35    59    60    1
    36    25    27   ar
    37    25    24    1
    38    13    14    1
    39    13    12    1
    40    60    61    1
    41    29    28    1
    42    29    30    1
    43    52    47   am
    44    21    24    1
    45    21    22    1
    46    21    20    1
    47    14    15    2
    48    22    23    2
    49    30    31    2
    50    30    32   am
    51    74    72    1
    52    61    62    2
    53    47    48    2
    54    47    46    1
    55    72    71    1
    56    32    33    1
    57    50    49    1
    58    46    49    1
    59    46    45    1
    60    71    68    1
    61    71    73    1
    62    49    51    1
    63    33    36    1
    64    33    34    1
    65    68    67    1
    66    68    69    1
    67    34    35    2
    68    69    70    2
