@<TRIPOS>MOLECULE
tmp/1gnoA00.pdb
 137 130 0 0 0
SMALL
GASTEIGER

@<TRIPOS>ATOM
      1  N         -6.2640   28.5580   21.2830 N.3     8  ARG8       -0.1245
      2  CA        -6.4850   27.9450   22.6070 C.3     8  ARG8        0.1563
      3  C         -6.7120   28.9680   23.7140 C.2     8  ARG8        0.2260
      4  O         -5.9300   29.9530   23.7770 O.2     8  ARG8       -0.2867
      5  CB        -5.1640   27.2200   22.9550 C.3     8  ARG8        0.0307
      6  CG        -5.1080   25.9070   22.1990 C.3     8  ARG8        0.0489
      7  CD        -4.0460   24.9540   22.6900 C.3     8  ARG8        0.2205
      8  NE        -4.1290   23.6260   22.0920 N.pl3   8  ARG8       -0.0865
      9  CZ        -3.1270   22.9700   21.4930 C.cat   8  ARG8        0.5346
     10  NH1       -1.9030   23.4920   21.3550 N.pl3   8  ARG8        0.1354
     11  NH2       -3.3180   21.7830   20.8780 N.pl3   8  ARG8        0.1354
     12  N         -4.6730   26.0500   30.3810 N.3    23  LEU23      -0.1245
     13  CA        -5.7480   26.1250   29.3800 C.3    23  LEU23       0.1561
     14  C         -7.0430   26.2720   30.1270 C.2    23  LEU23       0.2260
     15  O         -7.2680   25.4610   31.0380 O.2    23  LEU23      -0.2867
     16  CB        -5.7010   24.8070   28.6240 C.3    23  LEU23       0.0270
     17  CG        -6.5360   24.5700   27.3740 C.3    23  LEU23       0.0019
     18  CD1       -6.3400   25.7040   26.4010 C.3    23  LEU23       0.0001
     19  CD2       -6.0770   23.3850   26.5510 C.3    23  LEU23       0.0001
     20  N        -10.3730   25.0090   30.4810 N.3    25  ASP25      -0.1239
     21  CA       -11.0350   23.8710   29.8640 C.3    25  ASP25       0.1674
     22  C        -12.3480   23.4290   30.4720 C.2    25  ASP25       0.2266
     23  O        -12.3130   22.7780   31.5110 O.2    25  ASP25      -0.2867
     24  CB       -10.0050   22.7360   29.9270 C.3    25  ASP25       0.1410
     25  CG       -10.3730   21.4780   29.2350 C.2    25  ASP25       0.3668
     26  OD1      -11.4830   21.3480   28.6730 O.co2  25  ASP25      -0.2456
     27  OD2       -9.6270   20.4910   29.1710 O.co2  25  ASP25      -0.2456
     28  N        -14.2390   20.8140   29.5630 N.3    27  GLY27      -0.1210
     29  CA       -14.4320   19.3730   29.5190 C.3    27  GLY27       0.1956
     30  C        -13.6630   18.7470   30.6720 C.2    27  GLY27       0.2612
     31  O        -13.6500   17.5130   30.8600 O.2    27  GLY27      -0.2717
     32  N        -12.9950   19.5710   31.4870 N.am   28  ALA28      -0.1965
     33  CA       -12.1890   19.1430   32.6450 C.3    28  ALA28       0.1728
     34  C        -13.0250   19.3550   33.9140 C.2    28  ALA28       0.2616
     35  O        -13.3830   20.4650   34.2760 O.2    28  ALA28      -0.2715
     36  CB       -10.8440   19.8540   32.8230 C.3    28  ALA28       0.0334
     37  N        -13.3830   18.2820   34.6190 N.am   29  ASP29      -0.1957
     38  CA       -14.1070   18.4830   35.8590 C.3    29  ASP29       0.1840
     39  C        -13.1190   19.0400   36.8810 C.2    29  ASP29       0.2622
     40  O        -13.6130   19.7360   37.7510 O.2    29  ASP29      -0.2715
     41  CB       -14.6040   17.2260   36.5300 C.3    29  ASP29       0.1450
     42  CG       -15.5720   16.3280   35.7690 C.2    29  ASP29       0.3671
     43  OD1      -16.3450   16.8700   34.9230 O.co2  29  ASP29      -0.2456
     44  OD2      -15.5690   15.0930   36.0210 O.co2  29  ASP29      -0.2456
     45  N        -11.8350   18.7450   36.7780 N.am   30  ASP30      -0.1971
     46  CA       -10.8480   19.1630   37.7480 C.3    30  ASP30       0.1709
     47  C         -9.7230   20.0020   37.1390 C.2    30  ASP30       0.2293
     48  O         -9.7610   20.2600   35.9500 O.2    30  ASP30      -0.2864
     49  CB       -10.1050   18.0150   38.4020 C.3    30  ASP30       0.1436
     50  CG       -10.9540   16.8220   38.8070 C.2    30  ASP30       0.3671
     51  OD1      -11.5240   16.8830   39.9260 O.co2  30  ASP30      -0.2456
     52  OD2      -11.0510   15.8230   38.0450 O.co2  30  ASP30      -0.2456
     53  N         -5.6360   20.1960   36.7230 N.3    32  VAL32      -0.1245
     54  CA        -4.4660   19.2990   36.7530 C.3    32  VAL32       0.1561
     55  C         -3.2940   20.0280   36.1200 C.2    32  VAL32       0.2260
     56  O         -3.3670   20.5680   35.0360 O.2    32  VAL32      -0.2867
     57  CB        -4.7660   17.8990   36.2380 C.3    32  VAL32       0.0252
     58  CG1       -5.7550   17.8220   35.1020 C.3    32  VAL32       0.0019
     59  CG2       -3.5480   17.0840   35.8380 C.3    32  VAL32       0.0019
     60  N         -4.2930    9.7830   43.5580 N.3    45  LYS45      -0.1231
     61  CA        -5.5660    9.8290   42.8330 C.3    45  LYS45       0.1693
     62  C         -5.2930    9.4910   41.3780 C.2    45  LYS45       0.2592
     63  O         -4.1830    9.4710   40.8620 O.2    45  LYS45      -0.2718
     64  CB        -6.2030   11.1880   43.0650 C.3    45  LYS45       0.0285
     65  CG        -7.6520   11.4460   42.8670 C.3    45  LYS45       0.0035
     66  CD        -8.1900   12.7930   42.4110 C.3    45  LYS45       0.0206
     67  CE        -9.5840   12.6380   41.7470 C.3    45  LYS45       0.1093
     68  NZ       -10.4310   13.8460   41.9900 N.3    45  LYS45      -0.1314
     69  N         -6.3460    9.1270   40.6690 N.am   46  MET46      -0.1965
     70  CA        -6.3890    8.7820   39.2720 C.3    46  MET46       0.1736
     71  C         -7.6650    9.3550   38.6200 C.2    46  MET46       0.2616
     72  O         -8.8370    9.2870   38.9760 O.2    46  MET46      -0.2715
     73  CB        -6.3850    7.2950   38.9560 C.3    46  MET46       0.0427
     74  CG        -5.1860    6.5020   39.4680 C.3    46  MET46       0.0599
     75  SD        -5.6010    4.7340   39.5220 S.3    46  MET46      -0.1393
     76  CE        -5.0410    4.2030   41.1420 C.3    46  MET46       0.0692
     77  N         -7.3330   10.0560   37.5380 N.am   47  ILE47      -0.1963
     78  CA        -8.2560   10.7150   36.6400 C.3    47  ILE47       0.1727
     79  C         -8.1430   10.0150   35.2910 C.2    47  ILE47       0.2617
     80  O         -7.1230    9.4050   34.9800 O.2    47  ILE47      -0.2715
     81  CB        -7.8390   12.1800   36.4810 C.3    47  ILE47       0.0290
     82  CG1       -6.3310   12.1790   36.2840 C.3    47  ILE47       0.0022
     83  CG2       -8.1160   13.0020   37.7250 C.3    47  ILE47       0.0023
     84  CD1       -5.8650   13.5750   35.9160 C.3    47  ILE47       0.0001
     85  N         -9.2010   10.0630   34.5030 N.am   48  GLY48      -0.1940
     86  CA        -9.1720    9.5870   33.1330 C.3    48  GLY48       0.2014
     87  C         -9.4840   10.7230   32.1650 C.2    48  GLY48       0.2639
     88  O        -10.2230   11.6380   32.5020 O.2    48  GLY48      -0.2714
     89  N         -8.9100   10.6520   30.9900 N.am   49  GLY49      -0.1939
     90  CA        -9.0770   11.6570   29.9430 C.3    49  GLY49       0.2014
     91  C         -9.2120   10.8690   28.6400 C.2    49  GLY49       0.2635
     92  O         -9.7170    9.7590   28.6790 O.2    49  GLY49      -0.2714
     93  N         -8.7090   11.3320   27.5190 N.am   50  ILE50      -0.2030
     94  CA        -8.9030   10.6820   26.2450 C.3    50  ILE50       0.1282
     95  C         -8.1250    9.4280   26.0030 C.3    50  ILE50       0.2035
     96  O         -8.8820    8.4630   25.7040 O.3    50  ILE50      -0.2185
     97  CB        -8.8460   11.6210   25.0250 C.3    50  ILE50       0.0226
     98  CG1      -10.2760   11.5060   24.4310 C.3    50  ILE50       0.0018
     99  CG2       -7.7990   11.2420   24.0090 C.3    50  ILE50       0.0018
    100  CD1      -10.8590   12.8610   24.0850 C.3    50  ILE50       0.0001
    101  N         -6.6100    7.3680   28.0810 N.3    52  GLY52      -0.1210
    102  CA        -6.4820    6.6660   29.3300 C.3    52  GLY52       0.1956
    103  C         -6.5790    7.4280   30.6520 C.2    52  GLY52       0.2611
    104  O         -7.1640    8.5070   30.8410 O.2    52  GLY52      -0.2717
    105  N         -5.9270    6.7450   31.6060 N.am   53  PHE53      -0.1976
    106  CA        -6.0030    7.1380   33.0020 C.3    53  PHE53       0.1639
    107  C         -4.6110    7.5070   33.4930 C.2    53  PHE53       0.2290
    108  O         -3.6530    6.8210   33.1560 O.2    53  PHE53      -0.2864
    109  CB        -6.4920    5.9610   33.8530 C.3    53  PHE53       0.0560
    110  CG        -7.9590    5.6510   33.9400 C.ar   53  PHE53      -0.0200
    111  CD1       -8.6130    4.9140   32.9480 C.ar   53  PHE53      -0.0042
    112  CD2       -8.7110    6.0790   35.0350 C.ar   53  PHE53      -0.0042
    113  CE1       -9.9770    4.6680   33.0450 C.ar   53  PHE53      -0.0003
    114  CE2      -10.0660    5.8590   35.1270 C.ar   53  PHE53      -0.0003
    115  CZ       -10.6820    5.1460   34.1250 C.ar   53  PHE53      -0.0000
    116  N         -0.2500   16.5770   29.7710 N.3    81  PRO81      -0.2102
    117  CA         0.5770   17.1970   28.7420 C.3    81  PRO81       0.1504
    118  C          0.5280   18.7200   28.7050 C.2    81  PRO81       0.2575
    119  O          1.3330   19.4140   28.0480 O.2    81  PRO81      -0.2718
    120  CB         0.0480   16.5340   27.4500 C.3    81  PRO81       0.0282
    121  CG        -1.2790   15.9800   27.7740 C.3    81  PRO81       0.0208
    122  CD        -1.1630   15.5510   29.2030 C.3    81  PRO81       0.0893
    123  N         -0.4360   19.3810   29.3490 N.am   82  VAL82      -0.1980
    124  CA        -0.6970   20.7890   29.4070 C.3    82  VAL82       0.1595
    125  C         -1.3620   21.0510   30.7650 C.2    82  VAL82       0.2287
    126  O         -2.0810   20.1640   31.2010 O.2    82  VAL82      -0.2864
    127  CB        -1.7910   21.2700   28.4110 C.3    82  VAL82       0.0276
    128  CG1       -1.5870   22.7440   28.0440 C.3    82  VAL82       0.0022
    129  CG2       -1.8940   20.5500   27.0840 C.3    82  VAL82       0.0022
    130  N         -4.2590   22.3650   32.9140 N.3    84  ILE84      -0.1245
    131  CA        -5.7010   22.4470   32.6440 C.3    84  ILE84       0.1561
    132  C         -6.4570   23.1270   33.7770 C.2    84  ILE84       0.2260
    133  O         -6.1980   22.7180   34.9170 O.2    84  ILE84      -0.2867
    134  CB        -6.1480   20.9680   32.5940 C.3    84  ILE84       0.0252
    135  CG1       -5.8250   20.4400   31.1950 C.3    84  ILE84       0.0019
    136  CG2       -7.5830   20.6590   32.8950 C.3    84  ILE84       0.0019
    137  CD1       -5.6320   18.9190   31.3210 C.3    84  ILE84       0.0001
@<TRIPOS>BOND
     1    11     9    1
     2     1     2    1
     3    10     9    1
     4     9     8    2
     5     8     7    1
     6     6     7    1
     7     6     5    1
     8     2     5    1
     9     2     3    1
    10     3     4    2
    11    99    97    1
    12   100    98    1
    13    98    97    1
    14    97    94    1
    15    96    95    1
    16    95    94    1
    17    94    93    1
    18    18    17    1
    19    19    17    1
    20   129   127    1
    21    17    16    1
    22   120   121    1
    23   120   117    1
    24    93    91   am
    25   121   122    1
    26   128   127    1
    27   119   118    2
    28   101   102    1
    29   127   124    1
    30    16    13    1
    31    91    92    2
    32    91    90    1
    33    26    25   ar
    34   118   117    1
    35   118   123   am
    36   117   116    1
    37    27    25   ar
    38   122   116    1
    39    25    24    1
    40   102   103    1
    41   123   124    1
    42    13    14    1
    43    13    12    1
    44   124   125    1
    45    29    28    1
    46    29    30    1
    47    21    24    1
    48    21    22    1
    49    21    20    1
    50    90    89    1
    51    14    15    2
    52    22    23    2
    53   103   104    2
    54   103   105   am
    55    30    31    2
    56    30    32   am
    57   125   126    2
    58    89    87   am
    59   135   137    1
    60   135   134    1
    61    32    33    1
    62   105   106    1
    63    87    88    2
    64    87    86    1
    65   134   131    1
    66   134   136    1
    67   131   130    1
    68   131   132    1
    69    33    36    1
    70    33    34    1
    71   111   113   ar
    72   111   110   ar
    73   106   107    1
    74   106   109    1
    75   113   115   ar
    76    86    85    1
    77   108   107    2
    78   132   133    2
    79   109   110    1
    80    34    35    2
    81    34    37   am
    82   110   112   ar
    83   115   114   ar
    84    85    79   am
    85    37    38    1
    86    43    42   ar
    87    80    79    2
    88   112   114   ar
    89    56    55    2
    90    58    57    1
    91    79    78    1
    92    42    44   ar
    93    42    41    1
    94    59    57    1
    95    38    41    1
    96    38    39    1
    97    84    82    1
    98    48    47    2
    99    55    54    1
   100    57    54    1
   101    82    81    1
   102    81    78    1
   103    81    83    1
   104    78    77    1
   105    53    54    1
   106    45    39   am
   107    45    46    1
   108    39    40    2
   109    47    46    1
   110    77    71   am
   111    46    49    1
   112    52    50   ar
   113    49    50    1
   114    71    72    2
   115    71    70    1
   116    50    51   ar
   117    73    70    1
   118    73    74    1
   119    70    69    1
   120    74    75    1
   121    75    76    1
   122    69    62   am
   123    63    62    2
   124    62    61    1
   125    67    68    1
   126    67    66    1
   127    66    65    1
   128    61    64    1
   129    61    60    1
   130    65    64    1
