@<TRIPOS>MOLECULE
tmp/1gnpA00.pdb
 186 183 0 0 0
SMALL
GASTEIGER

@<TRIPOS>ATOM
      1  N          5.7860   26.9530   23.5330 N.3    12  GLY12      -0.1210
      2  CA         6.0320   28.3640   23.7770 C.3    12  GLY12       0.1956
      3  C          7.5080   28.6920   23.9180 C.2    12  GLY12       0.2612
      4  O          8.2000   28.1270   24.7680 O.2    12  GLY12      -0.2717
      5  N          8.0100   29.5320   23.0190 N.am   13  GLY13      -0.1942
      6  CA         9.3610   30.0480   23.1370 C.3    13  GLY13       0.2014
      7  C         10.3160   29.6160   22.0360 C.2    13  GLY13       0.2639
      8  O         11.4370   30.1190   21.9860 O.2    13  GLY13      -0.2714
      9  N          9.8860   28.7350   21.1280 N.am   14  VAL14      -0.1963
     10  CA        10.8090   28.1350   20.1630 C.3    14  VAL14       0.1727
     11  C         11.1500   28.9860   18.9490 C.2    14  VAL14       0.2617
     12  O         11.9920   28.5910   18.1400 O.2    14  VAL14      -0.2715
     13  CB        10.3150   26.7640   19.6520 C.3    14  VAL14       0.0290
     14  CG1       10.3440   25.7630   20.7870 C.3    14  VAL14       0.0023
     15  CG2        8.9120   26.8760   19.0210 C.3    14  VAL14       0.0023
     16  N         10.5010   30.1390   18.8140 N.am   15  GLY15      -0.1940
     17  CA        10.6900   30.9670   17.6330 C.3    15  GLY15       0.2014
     18  C          9.6260   30.8500   16.5470 C.2    15  GLY15       0.2639
     19  O          9.8510   31.2960   15.4240 O.2    15  GLY15      -0.2714
     20  N          8.4760   30.2570   16.8620 N.am   16  LYS16      -0.1963
     21  CA         7.3590   30.1720   15.9250 C.3    16  LYS16       0.1728
     22  C          7.0770   31.4930   15.2250 C.2    16  LYS16       0.2617
     23  O          6.9950   31.5470   13.9980 O.2    16  LYS16      -0.2715
     24  CB         6.1000   29.7220   16.6540 C.3    16  LYS16       0.0311
     25  CG         6.1020   28.2730   17.0310 C.3    16  LYS16       0.0038
     26  CD         4.7840   27.9180   17.6420 C.3    16  LYS16       0.0206
     27  CE         4.4120   28.9010   18.7630 C.3    16  LYS16       0.1093
     28  NZ         5.0190   28.5440   20.0780 N.3    16  LYS16      -0.1314
     29  N          6.9910   32.5610   16.0150 N.am   17  SER17      -0.1936
     30  CA         6.6240   33.8870   15.5300 C.3    17  SER17       0.2055
     31  C          7.7930   34.5890   14.8590 C.2    17  SER17       0.2642
     32  O          7.6050   35.2790   13.8670 O.2    17  SER17      -0.2714
     33  CB         6.1030   34.7520   16.6820 C.3    17  SER17       0.2130
     34  OG         5.1100   34.0680   17.4410 O.3    17  SER17      -0.2179
     35  N          9.0050   34.3850   15.3660 N.am   18  ALA18      -0.1977
     36  CA        10.1790   35.0180   14.7720 C.3    18  ALA18       0.1597
     37  C         10.3930   34.5040   13.3470 C.2    18  ALA18       0.2287
     38  O         10.9530   35.2070   12.5130 O.2    18  ALA18      -0.2864
     39  CB        11.4100   34.7510   15.6190 C.3    18  ALA18       0.0319
     40  N         14.3720   40.1670   12.0500 N.3    28  PHE28      -0.1227
     41  CA        14.3190   39.3390   13.2630 C.3    28  PHE28       0.1736
     42  C         13.8150   40.1490   14.4530 C.2    28  PHE28       0.2595
     43  O         14.3050   41.2520   14.7230 O.2    28  PHE28      -0.2718
     44  CB        15.7130   38.7760   13.5770 C.3    28  PHE28       0.0547
     45  CG        15.7650   37.9220   14.8180 C.ar   28  PHE28      -0.0202
     46  CD1       14.9000   36.8460   14.9760 C.ar   28  PHE28      -0.0042
     47  CD2       16.6770   38.2000   15.8330 C.ar   28  PHE28      -0.0042
     48  CE1       14.9330   36.0720   16.1220 C.ar   28  PHE28      -0.0003
     49  CE2       16.7180   37.4240   16.9890 C.ar   28  PHE28      -0.0003
     50  CZ        15.8350   36.3590   17.1310 C.ar   28  PHE28      -0.0000
     51  N         12.8300   39.5970   15.1540 N.am   29  VAL29      -0.1966
     52  CA        12.3070   40.2060   16.3740 C.3    29  VAL29       0.1727
     53  C         12.9030   39.5390   17.6060 C.2    29  VAL29       0.2616
     54  O         12.4520   38.4750   18.0420 O.2    29  VAL29      -0.2715
     55  CB        10.7550   40.1430   16.4400 C.3    29  VAL29       0.0290
     56  CG1       10.1610   41.0930   15.4210 C.3    29  VAL29       0.0023
     57  CG2       10.2470   38.7260   16.1850 C.3    29  VAL29       0.0023
     58  N         14.0350   40.0830   18.0390 N.am   30  ASP30      -0.1957
     59  CA        14.7230   39.6170   19.2440 C.3    30  ASP30       0.1840
     60  C         13.9960   40.0890   20.5240 C.2    30  ASP30       0.2622
     61  O         14.5840   40.7900   21.3600 O.2    30  ASP30      -0.2715
     62  CB        16.1670   40.1440   19.2180 C.3    30  ASP30       0.1450
     63  CG        17.1510   39.2010   19.8820 C.2    30  ASP30       0.3671
     64  OD1       16.7070   38.1960   20.4800 O.co2  30  ASP30      -0.2456
     65  OD2       18.3730   39.4550   19.7880 O.co2  30  ASP30      -0.2456
     66  N         12.7230   39.7220   20.6770 N.am   31  GLU31      -0.1963
     67  CA        11.8610   40.3420   21.6820 C.3    31  GLU31       0.1733
     68  C         10.8180   39.4010   22.2580 C.2    31  GLU31       0.2616
     69  O         10.0500   38.7960   21.5020 O.2    31  GLU31      -0.2715
     70  CB        11.1290   41.5270   21.0830 C.3    31  GLU31       0.0429
     71  CG        11.7670   42.8590   21.3270 C.3    31  GLU31       0.1163
     72  CD        10.9760   43.9660   20.6950 C.2    31  GLU31       0.3649
     73  OE1        9.7940   44.1430   21.0650 O.co2  31  GLU31      -0.2457
     74  OE2       11.5210   44.6280   19.7970 O.co2  31  GLU31      -0.2457
     75  N         10.6540   39.4610   23.5830 N.am   32  TYR32      -0.1960
     76  CA         9.6170   38.7220   24.3010 C.3    32  TYR32       0.1771
     77  C          8.2470   39.2840   23.9420 C.2    32  TYR32       0.2620
     78  O          7.8990   40.3970   24.3500 O.2    32  TYR32      -0.2715
     79  CB         9.8370   38.8510   25.8150 C.3    32  TYR32       0.0574
     80  CG         9.0410   37.8750   26.6720 C.ar   32  TYR32      -0.0198
     81  CD1        7.7630   38.1780   27.1040 C.ar   32  TYR32      -0.0009
     82  CD2        9.6170   36.7070   27.1460 C.ar   32  TYR32      -0.0009
     83  CE1        7.0880   37.3450   27.9900 C.ar   32  TYR32       0.0417
     84  CE2        8.9530   35.8780   28.0260 C.ar   32  TYR32       0.0417
     85  CZ         7.6900   36.2030   28.4440 C.ar   32  TYR32       0.1957
     86  OH         7.0410   35.3860   29.3330 O.3    32  TYR32      -0.2866
     87  N          7.4730   38.5150   23.1790 N.am   33  ASP33      -0.1958
     88  CA         6.0960   38.8900   22.8670 C.3    33  ASP33       0.1825
     89  C          5.2410   37.6570   22.6290 C.2    33  ASP33       0.2464
     90  O          5.2620   37.0660   21.5450 O.2    33  ASP33      -0.2730
     91  CB         6.0460   39.8000   21.6370 C.3    33  ASP33       0.1450
     92  CG         4.6810   40.4470   21.4490 C.2    33  ASP33       0.3671
     93  OD1        4.1480   41.0290   22.4240 O.co2  33  ASP33      -0.2456
     94  OD2        4.1270   40.3450   20.3330 O.co2  33  ASP33      -0.2456
     95  N          4.5350   37.2000   23.6630 N.am   34  PRO34      -0.2715
     96  CA         3.7720   35.9700   23.4470 C.3    34  PRO34       0.1536
     97  C          2.5220   36.1380   22.5810 C.2    34  PRO34       0.2599
     98  O          1.6970   37.0160   22.8300 O.2    34  PRO34      -0.2715
     99  CB         3.4300   35.5260   24.8640 C.3    34  PRO34       0.0310
    100  CG         4.5760   36.0640   25.6570 C.3    34  PRO34       0.0237
    101  CD         4.7620   37.4320   25.0960 C.3    34  PRO34       0.0939
    102  N          2.3070   35.1670   21.6970 N.am   35  THR35      -0.1951
    103  CA         1.1940   35.1800   20.7530 C.3    35  THR35       0.1897
    104  C         -0.0660   34.6120   21.3930 C.2    35  THR35       0.2313
    105  O          0.0110   33.7210   22.2360 O.2    35  THR35      -0.2863
    106  CB         1.4860   34.3030   19.5080 C.3    35  THR35       0.1794
    107  OG1        2.8630   34.4000   19.1370 O.3    35  THR35      -0.2208
    108  CG2        0.6070   34.7180   18.3430 C.3    35  THR35       0.0378
    109  N          0.4790   30.8340   16.0000 N.3    58  THR58      -0.1203
    110  CA        -0.2470   30.3430   17.1620 C.3    58  THR58       0.1994
    111  C          0.5540   30.4980   18.4610 C.2    58  THR58       0.2618
    112  O          1.7700   30.7150   18.4360 O.2    58  THR58      -0.2717
    113  CB        -0.6480   28.8540   16.9960 C.3    58  THR58       0.1784
    114  OG1        0.5240   28.0420   16.9300 O.3    58  THR58      -0.2211
    115  CG2       -1.4570   28.6530   15.7510 C.3    58  THR58       0.0376
    116  N         -0.1650   30.4930   19.5830 N.am   59  ALA59      -0.1965
    117  CA         0.4370   30.4090   20.9100 C.3    59  ALA59       0.1728
    118  C          0.9180   28.9860   21.1890 C.2    59  ALA59       0.2617
    119  O          0.2560   28.0150   20.8190 O.2    59  ALA59      -0.2715
    120  CB        -0.5800   30.8250   21.9800 C.3    59  ALA59       0.0334
    121  N          1.9900   28.8730   21.9650 N.am   60  GLY60      -0.1940
    122  CA         2.4920   27.5700   22.3550 C.3    60  GLY60       0.2014
    123  C          1.8900   27.0710   23.6550 C.2    60  GLY60       0.2638
    124  O          1.8530   25.8640   23.9020 O.2    60  GLY60      -0.2714
    125  N          1.4330   27.9950   24.4980 N.am   61  GLN61      -0.1977
    126  CA         0.8840   27.6450   25.8080 C.3    61  GLN61       0.1601
    127  C         -0.5170   27.0190   25.7320 C.2    61  GLN61       0.2287
    128  O         -1.4010   27.5690   25.0730 O.2    61  GLN61      -0.2864
    129  CB         0.8540   28.8930   26.7010 C.3    61  GLN61       0.0394
    130  CG         1.7320   28.7910   27.9450 C.3    61  GLN61       0.0908
    131  CD         1.1090   27.9380   29.0360 C.2    61  GLN61       0.2608
    132  OE1        0.4280   26.9450   28.7580 O.2    61  GLN61      -0.2717
    133  NE2        1.2960   28.3530   30.2860 N.am   61  GLN61      -0.0878
    134  N         14.3850   24.9110   14.9710 N.3   116  ASN116     -0.1225
    135  CA        14.7310   26.3180   14.8670 C.3   116  ASN116      0.1785
    136  C         15.7360   26.7450   15.9250 C.2   116  ASN116      0.2597
    137  O         15.9730   26.0190   16.8890 O.2   116  ASN116     -0.2718
    138  CB        13.4630   27.1740   14.9510 C.3   116  ASN116      0.1169
    139  CG        13.7410   28.6660   14.8080 C.2   116  ASN116      0.2627
    140  OD1       14.3180   29.1250   13.8200 O.2   116  ASN116     -0.2716
    141  ND2       13.2760   29.4350   15.7780 N.am  116  ASN116     -0.0877
    142  N         16.4020   27.8700   15.6570 N.am  117  LYS117     -0.1980
    143  CA        17.3870   28.4930   16.5430 C.3   117  LYS117      0.1596
    144  C         18.7550   27.8860   16.3400 C.2   117  LYS117      0.2287
    145  O         19.5580   27.8520   17.2600 O.2   117  LYS117     -0.2864
    146  CB        16.9900   28.3530   18.0170 C.3   117  LYS117      0.0298
    147  CG        15.6720   29.0200   18.3950 C.3   117  LYS117      0.0038
    148  CD        15.5560   29.1440   19.9090 C.3   117  LYS117      0.0206
    149  CE        14.2110   29.7070   20.3170 C.3   117  LYS117      0.1093
    150  NZ        14.1200   29.7740   21.7910 N.3   117  LYS117     -0.1314
    151  N         21.3560   28.8210   14.8260 N.3   119  ASP119     -0.1225
    152  CA        22.4780   29.7520   14.9180 C.3   119  ASP119      0.1805
    153  C         23.2370   29.6630   16.2440 C.2   119  ASP119      0.2597
    154  O         24.3590   30.1670   16.3410 O.2   119  ASP119     -0.2718
    155  CB        21.9920   31.1910   14.7330 C.3   119  ASP119      0.1424
    156  CG        21.0050   31.6040   15.7990 C.2   119  ASP119      0.3668
    157  OD1       19.8780   31.0730   15.7690 O.co2 119  ASP119     -0.2456
    158  OD2       21.3700   32.3770   16.7140 O.co2 119  ASP119     -0.2456
    159  N         22.6160   29.1020   17.2810 N.am  120  LEU120     -0.1979
    160  CA        23.2360   29.1090   18.6060 C.3   120  LEU120      0.1596
    161  C         23.9500   27.8110   19.0100 C.2   120  LEU120      0.2287
    162  O         23.6490   26.7190   18.5030 O.2   120  LEU120     -0.2864
    163  CB        22.2170   29.5300   19.6800 C.3   120  LEU120      0.0297
    164  CG        20.9420   28.7450   19.9840 C.3   120  LEU120      0.0022
    165  CD1       21.2640   27.4910   20.7590 C.3   120  LEU120      0.0001
    166  CD2       19.9950   29.6310   20.7760 C.3   120  LEU120      0.0001
    167  N         17.0120   29.2660   11.2950 N.3   145  SER145     -0.1202
    168  CA        17.4230   30.2680   12.2680 C.3   145  SER145      0.2020
    169  C         16.7060   31.5570   11.9160 C.2   145  SER145      0.2619
    170  O         16.9880   32.1540   10.8850 O.2   145  SER145     -0.2717
    171  CB        18.9380   30.4710   12.2230 C.3   145  SER145      0.2103
    172  OG        19.3590   31.4350   13.1680 O.3   145  SER145     -0.2182
    173  N         15.6750   31.8990   12.6810 N.am  146  ALA146     -0.1965
    174  CA        14.9640   33.1490   12.4560 C.3   146  ALA146      0.1728
    175  C         15.8910   34.3460   12.6490 C.2   146  ALA146      0.2616
    176  O         15.6040   35.4330   12.1540 O.2   146  ALA146     -0.2715
    177  CB        13.7590   33.2570   13.3810 C.3   146  ALA146      0.0334
    178  N         17.0170   34.1430   13.3340 N.am  147  LYS147     -0.1977
    179  CA        18.0030   35.2090   13.4640 C.3   147  LYS147      0.1596
    180  C         18.7540   35.4930   12.1680 C.2   147  LYS147      0.2287
    181  O         18.8380   36.6380   11.7380 O.2   147  LYS147     -0.2864
    182  CB        19.0040   34.8990   14.5710 C.3   147  LYS147      0.0298
    183  CG        19.8150   36.1200   14.9820 C.3   147  LYS147      0.0038
    184  CD        20.4120   35.9950   16.3710 C.3   147  LYS147      0.0206
    185  CE        21.0460   37.3200   16.8230 C.3   147  LYS147      0.1093
    186  NZ        20.0340   38.3980   17.1580 N.3   147  LYS147     -0.1314
@<TRIPOS>BOND
     1   170   169    2
     2   167   168    1
     3   181   180    2
     4   169   168    1
     5   169   173   am
     6    40    41    1
     7   176   175    2
     8   180   179    1
     9   171   168    1
    10   171   172    1
    11   174   175    1
    12   174   173    1
    13   174   177    1
    14    38    37    2
    15   175   178   am
    16    41    44    1
    17    41    42    1
    18   178   179    1
    19    37    36    1
    20   179   182    1
    21    44    45    1
    22   140   139    2
    23    32    31    2
    24    23    22    2
    25    42    43    2
    26    42    51   am
    27   182   183    1
    28   155   152    1
    29   155   156    1
    30    36    35    1
    31    36    39    1
    32   139   138    1
    33   139   141   am
    34    45    46   ar
    35    45    47   ar
    36   151   152    1
    37    31    35   am
    38    31    30    1
    39   135   138    1
    40   135   134    1
    41   135   136    1
    42   152   153    1
    43    46    48   ar
    44   183   184    1
    45    51    52    1
    46    22    21    1
    47    22    29   am
    48    56    55    1
    49    19    18    2
    50    30    29    1
    51    30    33    1
    52   142   136   am
    53   142   143    1
    54   115   113    1
    55   157   156   ar
    56   156   158   ar
    57    47    49   ar
    58   136   137    2
    59    21    24    1
    60    21    20    1
    61   109   110    1
    62    48    50   ar
    63    57    55    1
    64   153   154    2
    65   153   159   am
    66   144   143    1
    67   144   145    2
    68   184   185    1
    69    52    55    1
    70    52    53    1
    71   143   146    1
    72    18    20   am
    73    18    17    1
    74    24    25    1
    75    33    34    1
    76   185   186    1
    77   114   113    1
    78    49    50   ar
    79   113   110    1
    80    25    26    1
    81   110   111    1
    82   159   160    1
    83    53    58   am
    84    53    54    2
    85    17    16    1
    86    26    27    1
    87   146   147    1
    88    58    59    1
    89    12    11    2
    90   108   106    1
    91   147   148    1
    92   112   111    2
    93   111   116   am
    94   162   161    2
    95   160   161    1
    96   160   163    1
    97    27    28    1
    98    16    11   am
    99    11    10    1
   100    15    13    1
   101   107   106    1
   102    62    59    1
   103    62    63    1
   104    59    60    1
   105   106   103    1
   106   116   117    1
   107    13    10    1
   108    13    14    1
   109   163   164    1
   110    65    63   ar
   111    74    72   ar
   112    63    64   ar
   113   148   149    1
   114   164   165    1
   115   164   166    1
   116    10     9    1
   117   149   150    1
   118    94    92   ar
   119    60    66   am
   120    60    61    2
   121    66    67    1
   122    72    73   ar
   123    72    71    1
   124   103   104    1
   125   103   102    1
   126   119   118    2
   127   117   118    1
   128   117   120    1
   129    70    71    1
   130    70    67    1
   131     9     7   am
   132   118   121   am
   133   104   105    2
   134    92    91    1
   135    92    93   ar
   136    69    68    2
   137    90    89    2
   138    91    88    1
   139    67    68    1
   140   102    97   am
   141   121   122    1
   142     8     7    2
   143     7     6    1
   144    68    75   am
   145   122   123    1
   146    97    98    2
   147    97    96    1
   148    89    88    1
   149    89    95   am
   150    88    87    1
   151     5     6    1
   152     5     3   am
   153    87    77   am
   154    96    95    1
   155    96    99    1
   156     1     2    1
   157    75    76    1
   158   123   124    2
   159   123   125   am
   160    95   101    1
   161     2     3    1
   162     3     4    2
   163    77    76    1
   164    77    78    2
   165    76    79    1
   166   125   126    1
   167    99   100    1
   168   128   127    2
   169   101   100    1
   170   127   126    1
   171   126   129    1
   172    79    80    1
   173    80    81   ar
   174    80    82   ar
   175   129   130    1
   176    81    83   ar
   177    82    84   ar
   178   130   131    1
   179    83    85   ar
   180    84    85   ar
   181    85    86    1
   182   132   131    2
   183   131   133   am
