@<TRIPOS>MOLECULE
tmp/1gnqA00.pdb
 186 183 0 0 0
SMALL
GASTEIGER

@<TRIPOS>ATOM
      1  N          6.4380   27.1450   23.4450 N.3    12  GLY12      -0.1210
      2  CA         6.6830   28.5190   23.8200 C.3    12  GLY12       0.1956
      3  C          8.1430   28.8980   23.6970 C.2    12  GLY12       0.2612
      4  O          9.0260   28.1720   24.1590 O.2    12  GLY12      -0.2717
      5  N          8.3960   29.9810   22.9720 N.am   13  GLY13      -0.1942
      6  CA         9.7040   30.6000   22.9940 C.3    13  GLY13       0.2014
      7  C         10.6810   29.8710   22.1010 C.2    13  GLY13       0.2639
      8  O         11.8550   30.2340   22.0740 O.2    13  GLY13      -0.2714
      9  N         10.1770   28.9330   21.2860 N.am   14  VAL14      -0.1963
     10  CA        11.0070   28.1850   20.3300 C.3    14  VAL14       0.1727
     11  C         11.4230   29.0060   19.1170 C.2    14  VAL14       0.2617
     12  O         12.4560   28.7310   18.5070 O.2    14  VAL14      -0.2715
     13  CB        10.3040   26.9050   19.8120 C.3    14  VAL14       0.0290
     14  CG1       10.0400   25.9520   20.9510 C.3    14  VAL14       0.0023
     15  CG2        9.0120   27.2520   19.0920 C.3    14  VAL14       0.0023
     16  N         10.5500   29.9170   18.6960 N.am   15  GLY15      -0.1940
     17  CA        10.9410   30.9400   17.7420 C.3    15  GLY15       0.2014
     18  C          9.8650   31.2940   16.7310 C.2    15  GLY15       0.2639
     19  O         10.0520   32.2080   15.9280 O.2    15  GLY15      -0.2714
     20  N          8.7070   30.6410   16.8070 N.am   16  LYS16      -0.1963
     21  CA         7.7860   30.6260   15.6690 C.3    16  LYS16       0.1728
     22  C          7.2970   32.0050   15.2550 C.2    16  LYS16       0.2617
     23  O          6.9830   32.2200   14.0890 O.2    16  LYS16      -0.2715
     24  CB         6.6030   29.6970   15.9260 C.3    16  LYS16       0.0311
     25  CG         5.9460   29.8890   17.2600 C.3    16  LYS16       0.0038
     26  CD         4.9370   28.8010   17.5300 C.3    16  LYS16       0.0206
     27  CE         3.9950   29.2000   18.6590 C.3    16  LYS16       0.1093
     28  NZ         4.6440   29.1050   19.9940 N.3    16  LYS16      -0.1314
     29  N          7.3780   32.9740   16.1570 N.am   17  SER17      -0.1936
     30  CA         7.0570   34.3420   15.7860 C.3    17  SER17       0.2055
     31  C          8.2150   35.0210   15.0730 C.2    17  SER17       0.2642
     32  O          8.0140   35.6200   14.0210 O.2    17  SER17      -0.2714
     33  CB         6.6430   35.1530   17.0010 C.3    17  SER17       0.2130
     34  OG         5.2660   34.9880   17.2480 O.3    17  SER17      -0.2179
     35  N          9.4320   34.8430   15.5760 N.am   18  ALA18      -0.1977
     36  CA        10.6120   35.3800   14.8980 C.3    18  ALA18       0.1597
     37  C         10.7520   34.7950   13.4930 C.2    18  ALA18       0.2287
     38  O         11.2810   35.4550   12.5910 O.2    18  ALA18      -0.2864
     39  CB        11.8650   35.1020   15.7090 C.3    18  ALA18       0.0319
     40  N         14.7460   40.8790   12.5180 N.3    28  PHE28      -0.1227
     41  CA        14.7590   40.0050   13.6800 C.3    28  PHE28       0.1736
     42  C         14.0450   40.6580   14.8440 C.2    28  PHE28       0.2595
     43  O         14.3310   41.8040   15.1950 O.2    28  PHE28      -0.2718
     44  CB        16.1820   39.6620   14.0990 C.3    28  PHE28       0.0547
     45  CG        16.2540   38.5670   15.1350 C.ar   28  PHE28      -0.0202
     46  CD1       15.5700   37.3790   14.9580 C.ar   28  PHE28      -0.0042
     47  CD2       17.0030   38.7200   16.2820 C.ar   28  PHE28      -0.0042
     48  CE1       15.6330   36.3820   15.9040 C.ar   28  PHE28      -0.0003
     49  CE2       17.0610   37.7120   17.2320 C.ar   28  PHE28      -0.0003
     50  CZ        16.3790   36.5530   17.0400 C.ar   28  PHE28      -0.0000
     51  N         13.1840   39.8950   15.5050 N.am   29  VAL29      -0.1966
     52  CA        12.4750   40.3870   16.6770 C.3    29  VAL29       0.1727
     53  C         13.2500   40.0440   17.9670 C.2    29  VAL29       0.2616
     54  O         12.8860   39.1370   18.7090 O.2    29  VAL29      -0.2715
     55  CB        11.0280   39.8560   16.6880 C.3    29  VAL29       0.0290
     56  CG1       10.9930   38.3440   16.8740 C.3    29  VAL29       0.0023
     57  CG2       10.1950   40.5640   17.7380 C.3    29  VAL29       0.0023
     58  N         14.4150   40.6710   18.1300 N.am   30  ASP30      -0.1957
     59  CA        15.1540   40.6150   19.3950 C.3    30  ASP30       0.1840
     60  C         14.1810   41.0960   20.4850 C.2    30  ASP30       0.2622
     61  O         13.9080   40.3970   21.4670 O.2    30  ASP30      -0.2715
     62  CB        16.3720   41.5680   19.3650 C.3    30  ASP30       0.1450
     63  CG        17.5090   41.0870   18.4500 C.2    30  ASP30       0.3671
     64  OD1       18.2190   40.1140   18.8030 O.co2  30  ASP30      -0.2456
     65  OD2       17.7890   41.7790   17.4410 O.co2  30  ASP30      -0.2456
     66  N         13.6120   42.2730   20.2380 N.am   31  GLU31      -0.1963
     67  CA        12.6380   42.9000   21.1240 C.3    31  GLU31       0.1733
     68  C         11.3250   42.1300   21.1280 C.2    31  GLU31       0.2616
     69  O         11.2560   41.0110   20.6180 O.2    31  GLU31      -0.2715
     70  CB        12.4070   44.3530   20.7020 C.3    31  GLU31       0.0429
     71  CG        13.6900   45.1680   20.5360 C.3    31  GLU31       0.1163
     72  CD        14.6880   44.9460   21.6630 C.2    31  GLU31       0.3649
     73  OE1       14.5110   45.5450   22.7440 O.co2  31  GLU31      -0.2457
     74  OE2       15.6480   44.1700   21.4690 O.co2  31  GLU31      -0.2457
     75  N         10.2730   42.7280   21.6820 N.am   32  TYR32      -0.1960
     76  CA         9.2170   41.9100   22.2730 C.3    32  TYR32       0.1771
     77  C          7.7780   42.0720   21.7780 C.2    32  TYR32       0.2620
     78  O          7.2980   43.1820   21.5430 O.2    32  TYR32      -0.2715
     79  CB         9.2870   42.0180   23.8050 C.3    32  TYR32       0.0574
     80  CG        10.4850   41.2890   24.4000 C.ar   32  TYR32      -0.0198
     81  CD1       10.7200   39.9480   24.1070 C.ar   32  TYR32      -0.0009
     82  CD2       11.3800   41.9460   25.2380 C.ar   32  TYR32      -0.0009
     83  CE1       11.8110   39.2790   24.6330 C.ar   32  TYR32       0.0417
     84  CE2       12.4730   41.2780   25.7710 C.ar   32  TYR32       0.0417
     85  CZ        12.6790   39.9450   25.4670 C.ar   32  TYR32       0.1957
     86  OH        13.7500   39.2690   26.0070 O.3    32  TYR32      -0.2866
     87  N          7.0780   40.9390   21.7680 N.am   33  ASP33      -0.1958
     88  CA         5.7840   40.7750   21.1120 C.3    33  ASP33       0.1825
     89  C          5.1080   39.4880   21.6440 C.2    33  ASP33       0.2464
     90  O          4.8480   38.5590   20.8760 O.2    33  ASP33      -0.2730
     91  CB         6.0020   40.6850   19.5890 C.3    33  ASP33       0.1450
     92  CG         4.7060   40.7550   18.7890 C.2    33  ASP33       0.3671
     93  OD1        3.7190   41.3740   19.2480 O.co2  33  ASP33      -0.2456
     94  OD2        4.7040   40.2420   17.6500 O.co2  33  ASP33      -0.2456
     95  N          4.9380   39.3730   22.9750 N.am   34  PRO34      -0.2715
     96  CA         4.4030   38.1410   23.5860 C.3    34  PRO34       0.1536
     97  C          2.9490   37.8890   23.1880 C.2    34  PRO34       0.2599
     98  O          2.0270   38.4060   23.8230 O.2    34  PRO34      -0.2715
     99  CB         4.5460   38.3790   25.0930 C.3    34  PRO34       0.0310
    100  CG         5.4390   39.5850   25.2210 C.3    34  PRO34       0.0237
    101  CD         5.2390   40.3930   24.0010 C.3    34  PRO34       0.0939
    102  N          2.7490   37.0910   22.1460 N.am   35  THR35      -0.1951
    103  CA         1.5010   37.1200   21.3920 C.3    35  THR35       0.1897
    104  C          0.6880   35.8340   21.4220 C.2    35  THR35       0.2313
    105  O          1.2080   34.7550   21.7330 O.2    35  THR35      -0.2863
    106  CB         1.7570   37.4800   19.9060 C.3    35  THR35       0.1794
    107  OG1        3.0160   36.9440   19.4840 O.3    35  THR35      -0.2208
    108  CG2        1.7280   38.9840   19.7100 C.3    35  THR35       0.0378
    109  N          0.8340   31.1740   16.0320 N.3    58  THR58      -0.1203
    110  CA        -0.0080   30.7930   17.1530 C.3    58  THR58       0.1994
    111  C          0.6540   31.0730   18.4960 C.2    58  THR58       0.2618
    112  O          1.7890   31.5560   18.5450 O.2    58  THR58      -0.2717
    113  CB        -0.3780   29.3240   17.0590 C.3    58  THR58       0.1784
    114  OG1        0.7850   28.5610   16.7420 O.3    58  THR58      -0.2211
    115  CG2       -1.4110   29.1250   15.9740 C.3    58  THR58       0.0376
    116  N         -0.0510   30.7710   19.5860 N.am   59  ALA59      -0.1965
    117  CA         0.4890   30.9570   20.9330 C.3    59  ALA59       0.1728
    118  C          1.1690   29.6910   21.4350 C.2    59  ALA59       0.2617
    119  O          0.7330   28.5800   21.1300 O.2    59  ALA59      -0.2715
    120  CB        -0.6140   31.3600   21.8890 C.3    59  ALA59       0.0334
    121  N          2.2720   29.8720   22.1560 N.am   60  GLY60      -0.1940
    122  CA         2.9780   28.7490   22.7460 C.3    60  GLY60       0.2014
    123  C          2.2130   28.1570   23.9120 C.2    60  GLY60       0.2638
    124  O          1.3930   27.2630   23.7130 O.2    60  GLY60      -0.2714
    125  N          2.4210   28.7090   25.1090 N.am   61  GLN61      -0.1977
    126  CA         1.7700   28.1970   26.3160 C.3    61  GLN61       0.1601
    127  C          0.3080   27.8530   26.0780 C.2    61  GLN61       0.2287
    128  O         -0.4150   28.5410   25.3510 O.2    61  GLN61      -0.2864
    129  CB         1.8730   29.1890   27.4850 C.3    61  GLN61       0.0394
    130  CG         0.9590   28.8170   28.6670 C.3    61  GLN61       0.0908
    131  CD         1.4500   29.2980   30.0300 C.2    61  GLN61       0.2608
    132  OE1        2.6500   29.4330   30.2620 O.2    61  GLN61      -0.2717
    133  NE2        0.5170   29.4990   30.9580 N.am   61  GLN61      -0.0878
    134  N         14.7240   25.0790   15.1690 N.3   116  ASN116     -0.1225
    135  CA        15.0630   26.4640   14.9000 C.3   116  ASN116      0.1785
    136  C         16.1950   26.8520   15.8430 C.2   116  ASN116      0.2597
    137  O         16.6110   26.0400   16.6810 O.2   116  ASN116     -0.2718
    138  CB        13.8210   27.3300   15.1300 C.3   116  ASN116      0.1169
    139  CG        14.0380   28.7800   14.7790 C.2   116  ASN116      0.2627
    140  OD1       14.7850   29.1060   13.8570 O.2   116  ASN116     -0.2716
    141  ND2       13.4580   29.6640   15.5760 N.am  116  ASN116     -0.0877
    142  N         16.7610   28.0400   15.6350 N.am  117  LYS117     -0.1980
    143  CA        17.7610   28.6230   16.5350 C.3   117  LYS117      0.1596
    144  C         19.1650   28.0350   16.3380 C.2   117  LYS117      0.2287
    145  O         20.0290   28.1500   17.2160 O.2   117  LYS117     -0.2864
    146  CB        17.3300   28.4730   18.0080 C.3   117  LYS117      0.0298
    147  CG        16.0010   29.1550   18.3730 C.3   117  LYS117      0.0038
    148  CD        15.8070   29.2250   19.8820 C.3   117  LYS117      0.0206
    149  CE        14.5460   29.9860   20.2320 C.3   117  LYS117      0.1093
    150  NZ        14.7970   31.0060   21.2830 N.3   117  LYS117     -0.1314
    151  N         21.7820   28.9600   14.8030 N.3   119  ASP119     -0.1225
    152  CA        22.9370   29.8490   14.7950 C.3   119  ASP119      0.1805
    153  C         23.5830   29.9130   16.1840 C.2   119  ASP119      0.2597
    154  O         24.5610   30.6370   16.3880 O.2   119  ASP119     -0.2718
    155  CB        22.5140   31.2520   14.3380 C.3   119  ASP119      0.1424
    156  CG        21.4350   31.8560   15.2180 C.2   119  ASP119      0.3668
    157  OD1       20.3200   31.3030   15.2660 O.co2 119  ASP119     -0.2456
    158  OD2       21.6900   32.8960   15.8530 O.co2 119  ASP119     -0.2456
    159  N         23.0870   29.0860   17.1070 N.am  120  LEU120     -0.1979
    160  CA        23.5330   29.0910   18.5040 C.3   120  LEU120      0.1596
    161  C         24.5470   28.0070   18.8310 C.2   120  LEU120      0.2287
    162  O         24.3820   26.8520   18.4410 O.2   120  LEU120     -0.2864
    163  CB        22.3390   28.9300   19.4520 C.3   120  LEU120      0.0297
    164  CG        21.3600   30.0960   19.5610 C.3   120  LEU120      0.0022
    165  CD1       20.5410   29.9600   20.8260 C.3   120  LEU120      0.0001
    166  CD2       22.1260   31.4010   19.5780 C.3   120  LEU120      0.0001
    167  N         17.0400   29.5160   11.2710 N.3   145  SER145     -0.1202
    168  CA        17.3660   30.5710   12.2050 C.3   145  SER145      0.2020
    169  C         16.6780   31.8500   11.7540 C.2   145  SER145      0.2619
    170  O         16.8420   32.2870   10.6020 O.2   145  SER145     -0.2717
    171  CB        18.8650   30.7950   12.2460 C.3   145  SER145      0.2103
    172  OG        19.1280   32.0970   12.7280 O.3   145  SER145     -0.2182
    173  N         15.9200   32.4520   12.6690 N.am  146  ALA146     -0.1965
    174  CA        15.3320   33.7670   12.4290 C.3   146  ALA146      0.1728
    175  C         16.3470   34.8980   12.6020 C.2   146  ALA146      0.2616
    176  O         16.1800   35.9700   12.0270 O.2   146  ALA146     -0.2715
    177  CB        14.1520   33.9820   13.3370 C.3   146  ALA146      0.0334
    178  N         17.4410   34.6270   13.3150 N.am  147  LYS147     -0.1977
    179  CA        18.5280   35.6000   13.4710 C.3   147  LYS147      0.1596
    180  C         19.1300   35.8550   12.1090 C.2   147  LYS147      0.2287
    181  O         19.1320   36.9830   11.6160 O.2   147  LYS147     -0.2864
    182  CB        19.6140   35.0690   14.4130 C.3   147  LYS147      0.0298
    183  CG        20.5910   36.1300   14.9150 C.3   147  LYS147      0.0038
    184  CD        21.7710   36.3310   13.9680 C.3   147  LYS147      0.0206
    185  CE        22.5120   37.6580   14.2170 C.3   147  LYS147      0.1093
    186  NZ        21.9090   38.8460   13.5090 N.3   147  LYS147     -0.1314
@<TRIPOS>BOND
     1   170   169    2
     2   167   168    1
     3   181   180    2
     4   169   168    1
     5   169   173   am
     6   176   175    2
     7   180   179    1
     8   168   171    1
     9   171   172    1
    10   174   175    1
    11   174   173    1
    12   174   177    1
    13    40    41    1
    14    38    37    2
    15   175   178   am
    16   178   179    1
    17   179   182    1
    18    37    36    1
    19   186   185    1
    20    41    44    1
    21    41    42    1
    22   140   139    2
    23   184   185    1
    24   184   183    1
    25    32    31    2
    26    23    22    2
    27    44    45    1
    28   155   152    1
    29   155   156    1
    30   182   183    1
    31   139   138    1
    32   139   141   am
    33   152   151    1
    34   152   153    1
    35    42    43    2
    36    42    51   am
    37    36    35    1
    38    36    39    1
    39   135   138    1
    40   135   134    1
    41   135   136    1
    42    46    45   ar
    43    46    48   ar
    44    31    35   am
    45    31    30    1
    46    45    47   ar
    47   156   157   ar
    48   156   158   ar
    49    22    21    1
    50    22    29   am
    51    51    52    1
    52   142   136   am
    53   142   143    1
    54    21    24    1
    55    21    20    1
    56    30    29    1
    57    30    33    1
    58   136   137    2
    59    48    50   ar
    60    24    25    1
    61    19    18    2
    62   115   113    1
    63   109   110    1
    64   153   154    2
    65   153   159   am
    66    47    49   ar
    67   144   143    1
    68   144   145    2
    69   143   146    1
    70    52    55    1
    71    52    53    1
    72    55    56    1
    73    55    57    1
    74    18    20   am
    75    18    17    1
    76   114   113    1
    77    33    34    1
    78    50    49   ar
    79   113   110    1
    80   159   160    1
    81   110   111    1
    82    25    26    1
    83    65    63   ar
    84    26    27    1
    85    94    92   ar
    86    17    16    1
    87    53    58   am
    88    53    54    2
    89   146   147    1
    90    58    59    1
    91   147   148    1
    92   162   161    2
    93    63    64   ar
    94    63    62    1
    95   111   112    2
    96   111   116   am
    97   160   161    1
    98   160   163    1
    99    12    11    2
   100    27    28    1
   101    16    11   am
   102    92    93   ar
   103    92    91    1
   104    15    13    1
   105    11    10    1
   106    62    59    1
   107    59    60    1
   108   163   164    1
   109   107   106    1
   110   164   166    1
   111   164   165    1
   112   116   117    1
   113    91    88    1
   114   108   106    1
   115    13    10    1
   116    13    14    1
   117   148   149    1
   118   106   103    1
   119   149   150    1
   120    66    60   am
   121    66    67    1
   122    10     9    1
   123    60    61    2
   124    71    70    1
   125    71    72    1
   126    69    68    2
   127    70    67    1
   128    90    89    2
   129   117   118    1
   130   117   120    1
   131    88    89    1
   132    88    87    1
   133    67    68    1
   134    68    75   am
   135   119   118    2
   136     9     7   am
   137   103   104    1
   138   103   102    1
   139   104   105    2
   140   118   121   am
   141    74    72   ar
   142    78    77    2
   143    89    95   am
   144    72    73   ar
   145    75    76    1
   146    87    77   am
   147    77    76    1
   148     8     7    2
   149     7     6    1
   150   102    97   am
   151   121   122    1
   152    76    79    1
   153   122   123    1
   154     5     6    1
   155     5     3   am
   156    95    96    1
   157    95   101    1
   158    97    96    1
   159    97    98    2
   160     1     2    1
   161    96    99    1
   162     3     2    1
   163     3     4    2
   164   124   123    2
   165    79    80    1
   166   123   125   am
   167   101   100    1
   168    81    80   ar
   169    81    83   ar
   170    80    82   ar
   171    83    85   ar
   172    99   100    1
   173   125   126    1
   174    82    84   ar
   175   128   127    2
   176    85    84   ar
   177    85    86    1
   178   127   126    1
   179   126   129    1
   180   129   130    1
   181   130   131    1
   182   131   132    2
   183   131   133   am
