@<TRIPOS>MOLECULE
tmp/1gnwB01.pdb
 110 105 0 0 0
SMALL
GASTEIGER

@<TRIPOS>ATOM
      1  N         19.7900   89.8600   55.0620 N.3     9  ALA9       -0.1231
      2  CA        19.0400   88.9140   55.8800 C.3     9  ALA9        0.1694
      3  C         19.3110   87.5020   55.4090 C.2     9  ALA9        0.2593
      4  O         18.9530   86.5610   56.0920 O.2     9  ALA9       -0.2718
      5  CB        17.5450   89.1760   55.8050 C.3     9  ALA9        0.0304
      6  N         19.9080   87.3510   54.2340 N.am   10  SER10      -0.1938
      7  CA        20.1800   86.0280   53.6960 C.3    10  SER10       0.2055
      8  C         21.2380   85.2740   54.5030 C.2    10  SER10       0.2643
      9  O         22.1940   85.8680   54.9500 O.2    10  SER10      -0.2714
     10  CB        20.5930   86.1520   52.2300 C.3    10  SER10       0.2130
     11  OG        21.4260   85.0880   51.8260 O.3    10  SER10      -0.2179
     12  N         21.0250   83.9730   54.7180 N.am   11  ILE11      -0.1963
     13  CA        21.9430   83.0990   55.4570 C.3    11  ILE11       0.1727
     14  C         23.2620   82.9160   54.6890 C.2    11  ILE11       0.2616
     15  O         24.3310   82.8290   55.2920 O.2    11  ILE11      -0.2715
     16  CB        21.3170   81.6720   55.6840 C.3    11  ILE11       0.0290
     17  CG1       20.1170   81.7800   56.6220 C.3    11  ILE11       0.0022
     18  CG2       22.3890   80.6570   56.1930 C.3    11  ILE11       0.0023
     19  CD1       19.5410   80.4650   57.0660 C.3    11  ILE11       0.0001
     20  N         23.1810   82.8530   53.3640 N.am   12  ALA12      -0.1977
     21  CA        24.3690   82.6520   52.5420 C.3    12  ALA12       0.1597
     22  C         25.1980   83.9310   52.4240 C.2    12  ALA12       0.2287
     23  O         26.4250   83.8670   52.2600 O.2    12  ALA12      -0.2864
     24  CB        23.9740   82.1160   51.1370 C.3    12  ALA12       0.0319
     25  N         16.4470   87.7570   39.5460 N.3    40  LYS40      -0.1245
     26  CA        16.0110   86.9220   38.4240 C.3    40  LYS40       0.1561
     27  C         16.0200   87.6540   37.0930 C.2    40  LYS40       0.2260
     28  O         15.3170   87.2700   36.1590 O.2    40  LYS40      -0.2867
     29  CB        14.6100   86.3390   38.6950 C.3    40  LYS40       0.0271
     30  CG        14.5430   85.4760   39.9600 C.3    40  LYS40       0.0035
     31  CD        15.4870   84.2910   39.8550 C.3    40  LYS40       0.0206
     32  CE        15.5000   83.5080   41.1490 C.3    40  LYS40       0.1093
     33  NZ        16.2010   82.2050   41.0120 N.3    40  LYS40      -0.1314
     34  N         20.9600   83.6080   42.2020 N.3    52  GLN52      -0.1231
     35  CA        20.9070   83.5290   43.6510 C.3    52  GLN52       0.1698
     36  C         21.9480   84.4580   44.2150 C.2    52  GLN52       0.2592
     37  O         22.9270   84.7640   43.5370 O.2    52  GLN52      -0.2718
     38  CB        21.2030   82.1160   44.1560 C.3    52  GLN52       0.0381
     39  CG        20.2370   81.0640   43.6910 C.3    52  GLN52       0.0905
     40  CD        20.5320   79.7430   44.3100 C.2    52  GLN52       0.2608
     41  OE1       19.6860   79.1520   44.9480 O.2    52  GLN52      -0.2717
     42  NE2       21.7510   79.2690   44.1410 N.am   52  GLN52      -0.0878
     43  N         21.7300   84.9020   45.4470 N.am   53  VAL53      -0.1980
     44  CA        22.6780   85.7680   46.1450 C.3    53  VAL53       0.1595
     45  C         23.3570   84.8830   47.1860 C.2    53  VAL53       0.2287
     46  O         22.7440   83.9350   47.6710 O.2    53  VAL53      -0.2864
     47  CB        21.9700   86.9770   46.8550 C.3    53  VAL53       0.0276
     48  CG1       21.4540   87.9780   45.8020 C.3    53  VAL53       0.0022
     49  CG2       20.8370   86.4870   47.7290 C.3    53  VAL53       0.0022
     50  N         17.7980   75.5390   57.1020 N.3   114  SER114     -0.1217
     51  CA        17.1430   76.4700   56.1630 C.3   114  SER114      0.1889
     52  C         15.6350   76.3750   56.1090 C.2   114  SER114      0.2288
     53  O         14.9530   77.3890   55.9860 O.2   114  SER114     -0.2866
     54  CB        17.6500   76.2350   54.7630 C.3   114  SER114      0.2089
     55  OG        19.0460   76.3990   54.7510 O.3   114  SER114     -0.2183
     56  N         14.0590   77.6610   59.3820 N.3   117  ALA117     -0.1231
     57  CA        14.0550   79.1180   59.4800 C.3   117  ALA117      0.1694
     58  C         13.0210   79.7260   58.5340 C.2   117  ALA117      0.2592
     59  O         12.4720   80.8050   58.7930 O.2   117  ALA117     -0.2718
     60  CB        15.4650   79.6800   59.1930 C.3   117  ALA117      0.0304
     61  N         12.7750   79.0530   57.4240 N.am  118  PHE118     -0.1976
     62  CA        11.7720   79.5190   56.4820 C.3   118  PHE118      0.1639
     63  C         10.3840   79.3890   57.1390 C.2   118  PHE118      0.2290
     64  O          9.5660   80.3230   57.1040 O.2   118  PHE118     -0.2864
     65  CB        11.8160   78.6710   55.2130 C.3   118  PHE118      0.0560
     66  CG        10.6510   78.9030   54.2930 C.ar  118  PHE118     -0.0200
     67  CD1       10.6430   79.9730   53.4120 C.ar  118  PHE118     -0.0042
     68  CD2        9.5540   78.0540   54.3130 C.ar  118  PHE118     -0.0042
     69  CE1        9.5590   80.1910   52.5660 C.ar  118  PHE118     -0.0003
     70  CE2        8.4700   78.2690   53.4700 C.ar  118  PHE118     -0.0003
     71  CZ         8.4730   79.3340   52.5990 C.ar  118  PHE118     -0.0000
     72  N         10.4650   81.7060   60.6220 N.3   121  ILE121     -0.1231
     73  CA        10.8650   83.0920   60.5600 C.3   121  ILE121      0.1692
     74  C         10.3300   83.7960   59.3360 C.2   121  ILE121      0.2592
     75  O          9.6860   84.8360   59.4470 O.2   121  ILE121     -0.2718
     76  CB        12.4130   83.2170   60.5870 C.3   121  ILE121      0.0266
     77  CG1       12.9430   82.6030   61.8870 C.3   121  ILE121      0.0019
     78  CG2       12.8400   84.6880   60.4380 C.3   121  ILE121      0.0020
     79  CD1       14.4580   82.3990   61.9170 C.3   121  ILE121      0.0001
     80  N         10.6220   83.2370   58.1700 N.am  122  PHE122     -0.1976
     81  CA        10.1870   83.8390   56.9300 C.3   122  PHE122      0.1639
     82  C          8.6670   83.9400   56.8390 C.2   122  PHE122      0.2290
     83  O          8.1170   85.0130   56.5600 O.2   122  PHE122     -0.2864
     84  CB        10.7550   83.0720   55.7380 C.3   122  PHE122      0.0560
     85  CG        10.3610   83.6570   54.4180 C.ar  122  PHE122     -0.0200
     86  CD1        9.1440   83.3110   53.8240 C.ar  122  PHE122     -0.0042
     87  CD2       11.1840   84.5820   53.7830 C.ar  122  PHE122     -0.0042
     88  CE1        8.7490   83.8780   52.6200 C.ar  122  PHE122     -0.0003
     89  CE2       10.8000   85.1610   52.5710 C.ar  122  PHE122     -0.0003
     90  CZ         9.5800   84.8090   51.9890 C.ar  122  PHE122     -0.0000
     91  N          6.7500   87.0150   58.7200 N.3   125  ILE125     -0.1245
     92  CA         6.7110   88.3600   58.1460 C.3   125  ILE125      0.1561
     93  C          5.4470   88.5480   57.2910 C.2   125  ILE125      0.2260
     94  O          4.8690   89.6420   57.2410 O.2   125  ILE125     -0.2867
     95  CB         7.9700   88.5940   57.2480 C.3   125  ILE125      0.0252
     96  CG1        9.2420   88.5130   58.0920 C.3   125  ILE125      0.0019
     97  CG2        7.9230   89.9570   56.5460 C.3   125  ILE125      0.0019
     98  CD1       10.5020   88.3940   57.2610 C.3   125  ILE125      0.0001
     99  N         19.8240   82.4330   63.7180 N.3   177  TYR177     -0.1241
    100  CA        18.3880   82.4630   63.4810 C.3   177  TYR177      0.1605
    101  C         17.5530   81.5400   64.3490 C.2   177  TYR177      0.2264
    102  O         16.6360   81.9730   65.0350 O.2   177  TYR177     -0.2867
    103  CB        18.1080   82.1440   62.0140 C.3   177  TYR177      0.0534
    104  CG        18.1450   83.3500   61.1200 C.ar  177  TYR177     -0.0201
    105  CD1       17.3480   84.4770   61.3990 C.ar  177  TYR177     -0.0009
    106  CD2       18.9490   83.3680   59.9840 C.ar  177  TYR177     -0.0009
    107  CE1       17.3570   85.5640   60.5740 C.ar  177  TYR177      0.0417
    108  CE2       18.9640   84.4580   59.1480 C.ar  177  TYR177      0.0417
    109  CZ        18.1660   85.5540   59.4460 C.ar  177  TYR177      0.1957
    110  OH        18.1780   86.6370   58.6030 O.3   177  TYR177     -0.2866
@<TRIPOS>BOND
     1    28    27    2
     2    27    26    1
     3    26    29    1
     4    26    25    1
     5    29    30    1
     6    31    30    1
     7    31    32    1
     8    33    32    1
     9    34    35    1
    10    37    36    2
    11    35    38    1
    12    35    36    1
    13    39    38    1
    14    39    40    1
    15    42    40   am
    16    36    43   am
    17    40    41    2
    18    43    44    1
    19    48    47    1
    20    44    47    1
    21    44    45    1
    22    47    49    1
    23    45    46    2
    24    24    21    1
    25    11    10    1
    26    90    89   ar
    27    90    88   ar
    28    10     7    1
    29    23    22    2
    30    22    21    1
    31    21    20    1
    32    69    71   ar
    33    69    67   ar
    34    89    87   ar
    35    71    70   ar
    36    88    86   ar
    37    20    14   am
    38    67    66   ar
    39    70    68   ar
    40     7     6    1
    41     7     8    1
    42    87    85   ar
    43    86    85   ar
    44     6     3   am
    45    66    68   ar
    46    66    65    1
    47    85    84    1
    48     8    12   am
    49     8     9    2
    50    14    15    2
    51    14    13    1
    52    12    13    1
    53    55    54    1
    54    54    51    1
    55     1     2    1
    56    65    62    1
    57     3     2    1
    58     3     4    2
    59    13    16    1
    60    16    18    1
    61    16    17    1
    62    84    81    1
    63     5     2    1
    64    53    52    2
    65    52    51    1
    66    51    50    1
    67    62    63    1
    68    62    61    1
    69    97    95    1
    70    83    82    2
    71    17    19    1
    72    82    81    1
    73    81    80    1
    74    64    63    2
    75    94    93    2
    76    95    96    1
    77    95    92    1
    78    98    96    1
    79    93    92    1
    80    61    58   am
    81    92    91    1
    82    80    74   am
    83    58    59    2
    84    58    57    1
    85   110   109    1
    86   108   109   ar
    87   108   106   ar
    88    60    57    1
    89    74    75    2
    90    74    73    1
    91    56    57    1
    92   109   107   ar
    93   106   104   ar
    94    78    76    1
    95    73    76    1
    96    73    72    1
    97   107   105   ar
    98    76    77    1
    99   104   105   ar
   100   104   103    1
   101    77    79    1
   102   103   100    1
   103   100    99    1
   104   100   101    1
   105   101   102    2
