@<TRIPOS>MOLECULE
tmp/1gnwB00.pdb
 165 161 0 0 0
SMALL
GASTEIGER

@<TRIPOS>ATOM
      1  N         21.8270   90.1450   50.0890 N.3     7  HIS7       -0.1241
      2  CA        20.7850   90.6690   50.9500 C.3     7  HIS7        0.1621
      3  C         21.2440   90.4120   52.3780 C.2     7  HIS7        0.2264
      4  O         21.5000   89.2660   52.7480 O.2     7  HIS7       -0.2867
      5  CB        19.4660   89.9260   50.6610 C.3     7  HIS7        0.0745
      6  CG        18.2680   90.5690   51.2840 C.ar    7  HIS7        0.0817
      7  ND1       17.3530   91.2960   50.5540 N.ar    7  HIS7       -0.2268
      8  CD2       17.8370   90.6010   52.5690 C.ar    7  HIS7        0.1154
      9  CE1       16.4120   91.7480   51.3590 C.ar    7  HIS7        0.1986
     10  NE2       16.6840   91.3410   52.5880 N.ar    7  HIS7       -0.2212
     11  N         19.7900   89.8600   55.0620 N.3     9  ALA9       -0.1231
     12  CA        19.0400   88.9140   55.8800 C.3     9  ALA9        0.1694
     13  C         19.3110   87.5020   55.4090 C.2     9  ALA9        0.2593
     14  O         18.9530   86.5610   56.0920 O.2     9  ALA9       -0.2718
     15  CB        17.5450   89.1760   55.8050 C.3     9  ALA9        0.0304
     16  N         19.9080   87.3510   54.2340 N.am   10  SER10      -0.1938
     17  CA        20.1800   86.0280   53.6960 C.3    10  SER10       0.2055
     18  C         21.2380   85.2740   54.5030 C.2    10  SER10       0.2643
     19  O         22.1940   85.8680   54.9500 O.2    10  SER10      -0.2714
     20  CB        20.5930   86.1520   52.2300 C.3    10  SER10       0.2130
     21  OG        21.4260   85.0880   51.8260 O.3    10  SER10      -0.2179
     22  N         21.0250   83.9730   54.7180 N.am   11  ILE11      -0.1963
     23  CA        21.9430   83.0990   55.4570 C.3    11  ILE11       0.1727
     24  C         23.2620   82.9160   54.6890 C.2    11  ILE11       0.2616
     25  O         24.3310   82.8290   55.2920 O.2    11  ILE11      -0.2715
     26  CB        21.3170   81.6720   55.6840 C.3    11  ILE11       0.0290
     27  CG1       20.1170   81.7800   56.6220 C.3    11  ILE11       0.0022
     28  CG2       22.3890   80.6570   56.1930 C.3    11  ILE11       0.0023
     29  CD1       19.5410   80.4650   57.0660 C.3    11  ILE11       0.0001
     30  N         23.1810   82.8530   53.3640 N.am   12  ALA12      -0.1977
     31  CA        24.3690   82.6520   52.5420 C.3    12  ALA12       0.1597
     32  C         25.1980   83.9310   52.4240 C.2    12  ALA12       0.2287
     33  O         26.4250   83.8670   52.2600 O.2    12  ALA12      -0.2864
     34  CB        23.9740   82.1160   51.1370 C.3    12  ALA12       0.0319
     35  N         27.0860   84.6010   55.6900 N.3    15  ARG15      -0.1245
     36  CA        28.2130   83.6550   55.7580 C.3    15  ARG15       0.1563
     37  C         29.4630   84.2960   55.1510 C.2    15  ARG15       0.2260
     38  O         30.5460   84.1650   55.7030 O.2    15  ARG15      -0.2867
     39  CB        27.8390   82.3620   55.0140 C.3    15  ARG15       0.0307
     40  CG        28.7550   81.1860   55.2650 C.3    15  ARG15       0.0489
     41  CD        27.9880   79.8420   55.2240 C.3    15  ARG15       0.2205
     42  NE        27.1360   79.7160   54.0540 N.pl3  15  ARG15      -0.0865
     43  CZ        25.9610   79.1010   54.0380 C.cat  15  ARG15       0.5346
     44  NH1       25.4670   78.5210   55.1170 N.pl3  15  ARG15       0.1354
     45  NH2       25.2760   79.0620   52.9230 N.pl3  15  ARG15       0.1354
     46  N         15.7730   91.2260   46.4680 N.3    34  LEU34      -0.1231
     47  CA        15.1280   89.9400   46.2290 C.3    34  LEU34       0.1693
     48  C         13.6090   90.0950   46.0890 C.2    34  LEU34       0.2591
     49  O         13.0040   89.5460   45.1670 O.2    34  LEU34      -0.2718
     50  CB        15.4170   88.9740   47.3820 C.3    34  LEU34       0.0284
     51  CG        16.8420   88.4860   47.6280 C.3    34  LEU34       0.0019
     52  CD1       16.8220   87.5000   48.7810 C.3    34  LEU34       0.0001
     53  CD2       17.4150   87.8340   46.3810 C.3    34  LEU34       0.0001
     54  N         13.0200   90.8480   47.0090 N.am   35  LYS35      -0.1980
     55  CA        11.5760   91.1240   47.0410 C.3    35  LYS35       0.1596
     56  C         11.0370   91.7530   45.7510 C.2    35  LYS35       0.2287
     57  O          9.8440   91.7070   45.4850 O.2    35  LYS35      -0.2864
     58  CB        11.2930   92.0220   48.2360 C.3    35  LYS35       0.0298
     59  CG        11.9530   91.4650   49.4910 C.3    35  LYS35       0.0038
     60  CD        11.6960   92.3130   50.7150 C.3    35  LYS35       0.0206
     61  CE        12.3090   91.6940   51.9680 C.3    35  LYS35       0.1093
     62  NZ        11.6670   92.2600   53.2040 N.3    35  LYS35      -0.1314
     63  N         16.9820   89.6380   41.5180 N.3    39  HIS39      -0.1226
     64  CA        17.9230   88.5260   41.3240 C.3    39  HIS39       0.1752
     65  C         17.6290   87.5960   40.1410 C.2    39  HIS39       0.2595
     66  O         18.4700   86.7610   39.7740 O.2    39  HIS39      -0.2718
     67  CB        18.0220   87.6910   42.6130 C.3    39  HIS39       0.0759
     68  CG        16.7160   87.1160   43.0670 C.ar   39  HIS39       0.0818
     69  ND1       15.6260   87.8950   43.3810 N.ar   39  HIS39      -0.2268
     70  CD2       16.3270   85.8370   43.2640 C.ar   39  HIS39       0.1154
     71  CE1       14.6210   87.1240   43.7530 C.ar   39  HIS39       0.1986
     72  NE2       15.0220   85.8700   43.6900 N.ar   39  HIS39      -0.2212
     73  N         16.4470   87.7570   39.5460 N.am   40  LYS40      -0.1980
     74  CA        16.0110   86.9220   38.4240 C.3    40  LYS40       0.1596
     75  C         16.0200   87.6540   37.0930 C.2    40  LYS40       0.2287
     76  O         15.3170   87.2700   36.1590 O.2    40  LYS40      -0.2864
     77  CB        14.6100   86.3390   38.6950 C.3    40  LYS40       0.0298
     78  CG        14.5430   85.4760   39.9600 C.3    40  LYS40       0.0038
     79  CD        15.4870   84.2910   39.8550 C.3    40  LYS40       0.0206
     80  CE        15.5000   83.5080   41.1490 C.3    40  LYS40       0.1093
     81  NZ        16.2010   82.2050   41.0120 N.3    40  LYS40      -0.1314
     82  N         20.8000   82.8690   39.3240 N.3    51  GLY51      -0.1210
     83  CA        19.9720   83.8460   40.0040 C.3    51  GLY51       0.1956
     84  C         19.8320   83.7100   41.4990 C.2    51  GLY51       0.2612
     85  O         18.6980   83.6620   42.0140 O.2    51  GLY51      -0.2717
     86  N         20.9600   83.6080   42.2020 N.am   52  GLN52      -0.1965
     87  CA        20.9070   83.5290   43.6510 C.3    52  GLN52       0.1733
     88  C         21.9480   84.4580   44.2150 C.2    52  GLN52       0.2616
     89  O         22.9270   84.7640   43.5370 O.2    52  GLN52      -0.2715
     90  CB        21.2030   82.1160   44.1560 C.3    52  GLN52       0.0408
     91  CG        20.2370   81.0640   43.6910 C.3    52  GLN52       0.0908
     92  CD        20.5320   79.7430   44.3100 C.2    52  GLN52       0.2608
     93  OE1       19.6860   79.1520   44.9480 O.2    52  GLN52      -0.2717
     94  NE2       21.7510   79.2690   44.1410 N.am   52  GLN52      -0.0878
     95  N         21.7300   84.9020   45.4470 N.am   53  VAL53      -0.1964
     96  CA        22.6780   85.7680   46.1450 C.3    53  VAL53       0.1712
     97  C         23.3570   84.8830   47.1860 C.2    53  VAL53       0.2458
     98  O         22.7440   83.9350   47.6710 O.2    53  VAL53      -0.2730
     99  CB        21.9700   86.9770   46.8550 C.3    53  VAL53       0.0289
    100  CG1       21.4540   87.9780   45.8020 C.3    53  VAL53       0.0023
    101  CG2       20.8370   86.4870   47.7290 C.3    53  VAL53       0.0023
    102  N         24.6100   85.2010   47.5800 N.am   54  PRO54      -0.2727
    103  CA        25.3930   86.3420   47.1020 C.3    54  PRO54       0.1402
    104  C         26.1770   86.0440   45.8430 C.2    54  PRO54       0.2269
    105  O         26.2120   84.8930   45.3650 O.2    54  PRO54      -0.2865
    106  CB        26.3410   86.6040   48.2740 C.3    54  PRO54       0.0296
    107  CG        26.7110   85.2080   48.6670 C.3    54  PRO54       0.0237
    108  CD        25.3870   84.4260   48.5680 C.3    54  PRO54       0.0939
    109  N         28.3050   81.7160   44.9560 N.3    65  GLU65      -0.1231
    110  CA        28.3000   80.5120   45.7490 C.3    65  GLU65       0.1699
    111  C         29.1790   80.7870   46.9900 C.2    65  GLU65       0.2593
    112  O         30.4120   80.8340   46.9330 O.2    65  GLU65      -0.2718
    113  CB        28.8140   79.3770   44.8580 C.3    65  GLU65       0.0402
    114  CG        28.6270   78.0510   45.3760 C.3    65  GLU65       0.1161
    115  CD        27.1790   77.5950   45.5580 C.2    65  GLU65       0.3649
    116  OE1       26.5190   77.1690   44.5820 O.co2  65  GLU65      -0.2457
    117  OE2       26.7320   77.6130   46.7210 O.co2  65  GLU65      -0.2457
    118  N         28.5130   81.0110   48.1130 N.am   66  SER66      -0.1938
    119  CA        29.1490   81.3650   49.3620 C.3    66  SER66       0.2055
    120  C         30.2890   80.5060   49.8950 C.2    66  SER66       0.2642
    121  O         31.2150   81.0580   50.4800 O.2    66  SER66      -0.2714
    122  CB        28.0840   81.5110   50.4500 C.3    66  SER66       0.2130
    123  OG        27.4960   80.2560   50.7090 O.3    66  SER66      -0.2179
    124  N         30.2130   79.1830   49.7380 N.am   67  ARG67      -0.1977
    125  CA        31.2610   78.2630   50.2230 C.3    67  ARG67       0.1597
    126  C         32.5260   78.5220   49.4710 C.2    67  ARG67       0.2287
    127  O         33.5840   78.4970   50.0660 O.2    67  ARG67      -0.2864
    128  CB        30.8900   76.8040   49.9770 C.3    67  ARG67       0.0334
    129  CG        30.2310   76.0380   51.1230 C.3    67  ARG67       0.0492
    130  CD        29.1700   76.8270   51.7950 C.3    67  ARG67       0.2205
    131  NE        28.1540   75.9950   52.4790 N.pl3  67  ARG67      -0.0865
    132  CZ        26.9140   75.8140   52.0250 C.cat  67  ARG67       0.5346
    133  NH1       26.5300   76.3510   50.8630 N.pl3  67  ARG67       0.1354
    134  NH2       26.0130   75.2090   52.7800 N.pl3  67  ARG67       0.1354
    135  N         10.6220   83.2370   58.1700 N.3   122  PHE122     -0.1241
    136  CA        10.1870   83.8390   56.9300 C.3   122  PHE122      0.1605
    137  C          8.6670   83.9400   56.8390 C.2   122  PHE122      0.2264
    138  O          8.1170   85.0130   56.5600 O.2   122  PHE122     -0.2867
    139  CB        10.7550   83.0720   55.7380 C.3   122  PHE122      0.0534
    140  CG        10.3610   83.6570   54.4180 C.ar  122  PHE122     -0.0203
    141  CD1        9.1440   83.3110   53.8240 C.ar  122  PHE122     -0.0042
    142  CD2       11.1840   84.5820   53.7830 C.ar  122  PHE122     -0.0042
    143  CE1        8.7490   83.8780   52.6200 C.ar  122  PHE122     -0.0003
    144  CE2       10.8000   85.1610   52.5710 C.ar  122  PHE122     -0.0003
    145  CZ         9.5800   84.8090   51.9890 C.ar  122  PHE122     -0.0000
    146  N          6.7500   87.0150   58.7200 N.3   125  ILE125     -0.1231
    147  CA         6.7110   88.3600   58.1460 C.3   125  ILE125      0.1692
    148  C          5.4470   88.5480   57.2910 C.2   125  ILE125      0.2592
    149  O          4.8690   89.6420   57.2410 O.2   125  ILE125     -0.2718
    150  CB         7.9700   88.5940   57.2480 C.3   125  ILE125      0.0266
    151  CG1        9.2420   88.5130   58.0920 C.3   125  ILE125      0.0019
    152  CG2        7.9230   89.9570   56.5460 C.3   125  ILE125      0.0020
    153  CD1       10.5020   88.3940   57.2610 C.3   125  ILE125      0.0001
    154  N          5.0030   87.4730   56.6450 N.am  126  TYR126     -0.1976
    155  CA         3.8460   87.5650   55.7720 C.3   126  TYR126      0.1639
    156  C          2.5790   86.9710   56.3150 C.2   126  TYR126      0.2290
    157  O          1.5950   86.8850   55.6090 O.2   126  TYR126     -0.2864
    158  CB         4.1800   86.9580   54.4230 C.3   126  TYR126      0.0560
    159  CG         5.4030   87.6030   53.8240 C.ar  126  TYR126     -0.0198
    160  CD1        6.6850   87.1420   54.1470 C.ar  126  TYR126     -0.0009
    161  CD2        5.2920   88.6930   52.9580 C.ar  126  TYR126     -0.0009
    162  CE1        7.8250   87.7500   53.6300 C.ar  126  TYR126      0.0417
    163  CE2        6.4390   89.3040   52.4320 C.ar  126  TYR126      0.0417
    164  CZ         7.6990   88.8250   52.7800 C.ar  126  TYR126      0.1957
    165  OH         8.8320   89.4350   52.2920 O.3   126  TYR126     -0.2866
@<TRIPOS>BOND
     1    76    75    2
     2    75    74    1
     3    74    77    1
     4    74    73    1
     5    77    78    1
     6    82    83    1
     7    73    65   am
     8    66    65    2
     9    79    78    1
    10    79    80    1
    11    83    84    1
    12    65    64    1
    13    81    80    1
    14    64    63    1
    15    64    67    1
    16    84    85    2
    17    84    86   am
    18    86    87    1
    19    67    68    1
    20    68    70   ar
    21    68    69   ar
    22    70    72   ar
    23    69    71   ar
    24    89    88    2
    25    87    90    1
    26    87    88    1
    27    72    71   ar
    28    91    90    1
    29    91    92    1
    30    94    92   am
    31    88    95   am
    32    92    93    2
    33   116   115   ar
    34   113   114    1
    35   113   110    1
    36   109   110    1
    37    49    48    2
    38   105   104    2
    39   114   115    1
    40    95    96    1
    41    57    56    2
    42   115   117   ar
    43   110   111    1
    44    56    55    1
    45   100    99    1
    46   104   103    1
    47    48    47    1
    48    48    54   am
    49    96    99    1
    50    96    97    1
    51    47    46    1
    52    47    50    1
    53    53    51    1
    54    99   101    1
    55   112   111    2
    56   111   118   am
    57    54    55    1
    58    55    58    1
    59   103   102    1
    60   103   106    1
    61    97   102   am
    62    97    98    2
    63    50    51    1
    64   102   108    1
    65    51    52    1
    66   118   119    1
    67    58    59    1
    68   106   107    1
    69   108   107    1
    70   119   120    1
    71   119   122    1
    72   126   127    2
    73   126   125    1
    74    59    60    1
    75   124   120   am
    76   124   125    1
    77   120   121    2
    78   128   125    1
    79   128   129    1
    80     1     2    1
    81   122   123    1
    82     7     6   ar
    83     7     9   ar
    84     5     2    1
    85     5     6    1
    86    60    61    1
    87   133   132    1
    88     2     3    1
    89   129   130    1
    90    34    31    1
    91     6     8   ar
    92     9    10   ar
    93   130   131    1
    94    21    20    1
    95    61    62    1
    96   145   144   ar
    97   145   143   ar
    98   132   131    2
    99   132   134    1
   100    20    17    1
   101    33    32    2
   102   165   164    1
   103     3     4    2
   104    32    31    1
   105   163   164   ar
   106   163   161   ar
   107    31    30    1
   108     8    10   ar
   109   144   142   ar
   110   143   141   ar
   111   164   162   ar
   112    45    43    1
   113   161   159   ar
   114    30    24   am
   115   162   160   ar
   116    17    16    1
   117    17    18    1
   118   142   140   ar
   119   141   140   ar
   120   159   160   ar
   121   159   158    1
   122    43    42    2
   123    43    44    1
   124    42    41    1
   125    16    13   am
   126   140   139    1
   127   158   155    1
   128    18    22   am
   129    18    19    2
   130    24    25    2
   131    24    23    1
   132    22    23    1
   133    39    40    1
   134    39    36    1
   135    11    12    1
   136    37    38    2
   137    37    36    1
   138    41    40    1
   139    13    12    1
   140    13    14    2
   141    23    26    1
   142   157   156    2
   143    26    28    1
   144    26    27    1
   145    35    36    1
   146   139   136    1
   147   155   156    1
   148   155   154    1
   149    15    12    1
   150   152   150    1
   151   138   137    2
   152    27    29    1
   153   154   148   am
   154   137   136    1
   155   136   135    1
   156   149   148    2
   157   150   151    1
   158   150   147    1
   159   153   151    1
   160   148   147    1
   161   147   146    1
