@<TRIPOS>MOLECULE
tmp/1gnyA00.pdb
 126 121 0 0 0
SMALL
GASTEIGER

@<TRIPOS>ATOM
      1  N         21.7460    0.2250   12.4510 N.3    16  ASN16      -0.1225
      2  CA        22.4510    0.6080   11.1900 C.3    16  ASN16       0.1785
      3  C         23.5020   -0.4140   10.7580 C.2    16  ASN16       0.2597
      4  O         24.1550   -1.0550   11.6000 O.2    16  ASN16      -0.2718
      5  CB        23.1610    1.9380   11.3560 C.3    16  ASN16       0.1169
      6  CG        23.4510    2.6290   10.0470 C.2    16  ASN16       0.2627
      7  OD1       24.6290    2.8600    9.6690 O.2    16  ASN16      -0.2716
      8  ND2       22.4170    3.0240    9.3830 N.am   16  ASN16      -0.0877
      9  N         23.6050   -0.5800    9.4360 N.am   17  ALA17      -0.1966
     10  CA        24.6560   -1.4140    8.8260 C.3    17  ALA17       0.1728
     11  C         25.3200   -0.6090    7.7160 C.2    17  ALA17       0.2616
     12  O         24.6760   -0.1790    6.7850 O.2    17  ALA17      -0.2715
     13  CB        24.1110   -2.6810    8.2760 C.3    17  ALA17       0.0334
     14  N         26.6180   -0.3820    7.8460 N.am   18  SER18      -0.1950
     15  CA        27.4020    0.3230    6.8020 C.3    18  SER18       0.1924
     16  C         28.3740   -0.5830    6.0210 C.2    18  SER18       0.2314
     17  O         29.0680   -0.1060    5.1070 O.2    18  SER18      -0.2863
     18  CB        28.2010    1.4690    7.4580 C.3    18  SER18       0.2116
     19  OG        29.2380    0.9260    8.3100 O.3    18  SER18      -0.2180
     20  N         33.7000    3.3110   16.3960 N.3    77  GLN77      -0.1245
     21  CA        33.7590    4.5030   15.5510 C.3    77  GLN77       0.1566
     22  C         32.4910    5.3390   15.6400 C.2    77  GLN77       0.2260
     23  O         31.4370    4.8820   15.2080 O.2    77  GLN77      -0.2867
     24  CB        33.9860    4.1240   14.0810 C.3    77  GLN77       0.0367
     25  CG        33.9650    5.3260   13.1220 C.3    77  GLN77       0.0905
     26  CD        34.2610    4.9590   11.6790 C.2    77  GLN77       0.2608
     27  OE1       34.0000    3.8360   11.2250 O.2    77  GLN77      -0.2717
     28  NE2       34.7940    5.9220   10.9460 N.am   77  GLN77      -0.0878
     29  N         30.5660    8.3580   14.0580 N.3    79  PHE79      -0.1241
     30  CA        30.5750    8.9070   12.6980 C.3    79  PHE79       0.1605
     31  C         29.3570    9.7860   12.4490 C.2    79  PHE79       0.2264
     32  O         28.4060    9.7430   13.2020 O.2    79  PHE79      -0.2867
     33  CB        30.6430    7.7720   11.6560 C.3    79  PHE79       0.0534
     34  CG        29.4330    6.8670   11.6470 C.ar   79  PHE79      -0.0203
     35  CD1       29.2500    5.8810   12.6140 C.ar   79  PHE79      -0.0042
     36  CD2       28.4460    7.0300   10.6800 C.ar   79  PHE79      -0.0042
     37  CE1       28.1290    5.0520   12.6100 C.ar   79  PHE79      -0.0003
     38  CE2       27.3170    6.2460   10.6920 C.ar   79  PHE79      -0.0003
     39  CZ        27.1550    5.2300   11.6480 C.ar   79  PHE79      -0.0000
     40  N         27.1380   11.4760    8.7650 N.3    81  GLN81      -0.1245
     41  CA        27.0780   11.5110    7.2790 C.3    81  GLN81       0.1566
     42  C         25.7590   12.1620    6.8360 C.2    81  GLN81       0.2260
     43  O         24.7550   12.1800    7.5600 O.2    81  GLN81      -0.2867
     44  CB        27.1950   10.0770    6.6670 C.3    81  GLN81       0.0367
     45  CG        26.1040    9.1260    7.1680 C.3    81  GLN81       0.0905
     46  CD        26.3060    7.6210    6.8820 C.2    81  GLN81       0.2608
     47  OE1       25.8310    6.7950    7.6720 O.2    81  GLN81      -0.2717
     48  NE2       26.9000    7.2670    5.7160 N.am   81  GLN81      -0.0878
     49  N         20.9740   10.2020    2.8140 N.3    84  GLU84      -0.1245
     50  CA        20.7300   10.0310    1.3860 C.3    84  GLU84       0.1567
     51  C         21.8830   10.4920    0.4650 C.2    84  GLU84       0.2260
     52  O         21.7170   10.4830   -0.7470 O.2    84  GLU84      -0.2867
     53  CB        19.4100   10.6910    0.9860 C.3    84  GLU84       0.0388
     54  CG        18.4680    9.7520    0.2990 C.3    84  GLU84       0.1160
     55  CD        18.0000    8.6590    1.2380 C.2    84  GLU84       0.3649
     56  OE1       17.2630    8.9680    2.2000 O.co2  84  GLU84      -0.2457
     57  OE2       18.4200    7.5000    1.0310 O.co2  84  GLU84      -0.2457
     58  N         25.2040    9.3170    1.3450 N.3    86  TRP86      -0.1227
     59  CA        25.9360    8.5510    2.3720 C.3    86  TRP86       0.1737
     60  C         27.4620    8.5950    2.4380 C.2    86  TRP86       0.2596
     61  O         28.0070    8.5340    3.5170 O.2    86  TRP86      -0.2718
     62  CB        25.4920    7.0940    2.3340 C.3    86  TRP86       0.0564
     63  CG        23.9950    6.8680    2.3130 C.ar   86  TRP86       0.0003
     64  CD1       23.2630    6.3980    1.2730 C.ar   86  TRP86       0.0946
     65  CD2       23.0740    7.0730    3.3890 C.ar   86  TRP86       0.0152
     66  NE1       21.9460    6.2500    1.6360 N.ar   86  TRP86      -0.2442
     67  CE2       21.7950    6.6840    2.9270 C.ar   86  TRP86       0.0810
     68  CE3       23.1980    7.5440    4.7000 C.ar   86  TRP86       0.0012
     69  CZ2       20.6510    6.7510    3.7250 C.ar   86  TRP86       0.0191
     70  CZ3       22.0760    7.6050    5.4860 C.ar   86  TRP86       0.0001
     71  CH2       20.8120    7.2180    4.9980 C.ar   86  TRP86       0.0015
     72  N         28.1370    8.7380    1.3040 N.am   87  SER87      -0.1952
     73  CA        29.6270    8.7640    1.2740 C.3    87  SER87       0.1924
     74  C         30.2640   10.0480    1.8460 C.2    87  SER87       0.2314
     75  O         31.4380   10.0400    2.2300 O.2    87  SER87      -0.2863
     76  CB        30.1480    8.5880   -0.1430 C.3    87  SER87       0.2116
     77  OG        30.0270    9.8220   -0.8040 O.3    87  SER87      -0.2180
     78  N         34.6150   10.5290    8.9300 N.3    91  TRP91      -0.1227
     79  CA        35.1080    9.1550    9.0580 C.3    91  TRP91       0.1737
     80  C         36.4440    9.0300    9.8260 C.2    91  TRP91       0.2595
     81  O         37.0190    7.9520    9.8880 O.2    91  TRP91      -0.2718
     82  CB        35.3140    8.6220    7.6180 C.3    91  TRP91       0.0564
     83  CG        34.0570    8.7480    6.7870 C.ar   91  TRP91       0.0003
     84  CD1       33.8320    9.5620    5.7050 C.ar   91  TRP91       0.0946
     85  CD2       32.8480    8.0330    7.0030 C.ar   91  TRP91       0.0152
     86  NE1       32.5490    9.3830    5.2430 N.ar   91  TRP91      -0.2442
     87  CE2       31.9260    8.4460    6.0150 C.ar   91  TRP91       0.0810
     88  CE3       32.4620    7.0360    7.9150 C.ar   91  TRP91       0.0012
     89  CZ2       30.6310    7.9190    5.9310 C.ar   91  TRP91       0.0191
     90  CZ3       31.1770    6.5120    7.8260 C.ar   91  TRP91       0.0001
     91  CH2       30.2800    6.9660    6.8520 C.ar   91  TRP91       0.0015
     92  N         36.9100   10.1050   10.4300 N.am   92  ASP92      -0.1974
     93  CA        38.2620   10.1040   11.0590 C.3    92  ASP92       0.1709
     94  C         38.3190    9.8790   12.5910 C.2    92  ASP92       0.2293
     95  O         39.4130    9.9580   13.1990 O.2    92  ASP92      -0.2864
     96  CB        39.0240   11.3950   10.6880 C.3    92  ASP92       0.1436
     97  CG        39.2580   11.5450    9.1750 C.2    92  ASP92       0.3671
     98  OD1       39.4010   10.5310    8.4430 O.co2  92  ASP92      -0.2456
     99  OD2       39.2920   12.6740    8.6310 O.co2  92  ASP92      -0.2456
    100  N         22.7510   12.0060    9.6380 N.3   127  GLN127     -0.1245
    101  CA        22.7180   10.7610   10.4050 C.3   127  GLN127      0.1566
    102  C         23.9740   10.6520   11.2270 C.2   127  GLN127      0.2260
    103  O         25.0690   10.7380   10.6630 O.2   127  GLN127     -0.2867
    104  CB        22.5960    9.5490    9.4960 C.3   127  GLN127      0.0367
    105  CG        22.5130    8.1920   10.1990 C.3   127  GLN127      0.0905
    106  CD        22.1960    7.0830    9.2140 C.2   127  GLN127      0.2608
    107  OE1       21.0130    6.7660    9.0100 O.2   127  GLN127     -0.2717
    108  NE2       23.2360    6.4650    8.6490 N.am  127  GLN127     -0.0878
    109  N         29.4450    2.7570   15.6340 N.3   131  GLN131     -0.1245
    110  CA        29.4640    1.4240   15.0260 C.3   131  GLN131      0.1566
    111  C         30.7150    0.6340   15.4170 C.2   131  GLN131      0.2260
    112  O         31.7590    1.2470   15.7270 O.2   131  GLN131     -0.2867
    113  CB        29.3470    1.4900   13.4900 C.3   131  GLN131      0.0367
    114  CG        30.5160    2.2400   12.8060 C.3   131  GLN131      0.0905
    115  CD        30.3420    2.3480   11.2840 C.2   131  GLN131      0.2608
    116  OE1       29.2940    1.9390   10.7550 O.2   131  GLN131     -0.2717
    117  NE2       31.3780    2.8830   10.5790 N.am  131  GLN131     -0.0878
    118  N         33.8540   -1.8540   14.5860 N.3   133  LYS133     -0.1245
    119  CA        34.7790   -2.1040   13.4730 C.3   133  LYS133      0.1561
    120  C         35.7260   -3.2510   13.8460 C.2   133  LYS133      0.2260
    121  O         36.3210   -3.2320   14.9180 O.2   133  LYS133     -0.2867
    122  CB        35.6370   -0.8830   13.1280 C.3   133  LYS133      0.0271
    123  CG        34.8980    0.4210   12.7660 C.3   133  LYS133      0.0035
    124  CD        34.2090    0.3270   11.4720 C.3   133  LYS133      0.0206
    125  CE        35.1220    0.5520   10.2450 C.3   133  LYS133      0.1093
    126  NZ        34.3770   -0.1180    9.0680 N.3   133  LYS133     -0.1314
@<TRIPOS>BOND
     1    77    76    1
     2    52    51    2
     3    76    73    1
     4    54    53    1
     5    54    55    1
     6    51    50    1
     7    53    50    1
     8    57    55   ar
     9    55    56   ar
    10    64    66   ar
    11    64    63   ar
    12    73    72    1
    13    73    74    1
    14    72    60   am
    15    58    59    1
    16    50    49    1
    17    66    67   ar
    18    74    75    2
    19    63    62    1
    20    63    65   ar
    21    62    59    1
    22    59    60    1
    23    60    61    2
    24    67    65   ar
    25    67    69   ar
    26    65    68   ar
    27    69    71   ar
    28    68    70   ar
    29    71    70   ar
    30    17    16    2
    31    86    84   ar
    32    86    87   ar
    33    84    83   ar
    34    48    46   am
    35    89    87   ar
    36    89    91   ar
    37    87    85   ar
    38    16    15    1
    39    44    45    1
    40    44    41    1
    41    12    11    2
    42    83    85   ar
    43    83    82    1
    44    15    18    1
    45    15    14    1
    46    42    41    1
    47    42    43    2
    48    91    90   ar
    49    46    45    1
    50    46    47    2
    51    85    88   ar
    52    41    40    1
    53    18    19    1
    54    82    79    1
    55    11    14   am
    56    11    10    1
    57    90    88   ar
    58    13    10    1
    59    98    97   ar
    60    99    97   ar
    61   108   106   am
    62    10     9    1
    63    78    79    1
    64   107   106    2
    65    79    80    1
    66   126   125    1
    67    97    96    1
    68   106   105    1
    69     8     6   am
    70     9     3   am
    71   104   105    1
    72   104   101    1
    73   100   101    1
    74     7     6    2
    75    80    81    2
    76    80    92   am
    77     6     5    1
    78   125   124    1
    79   101   102    1
    80    92    93    1
    81   117   115   am
    82   103   102    2
    83    36    38   ar
    84    36    34   ar
    85    96    93    1
    86    38    39   ar
    87   116   115    2
    88     3     2    1
    89     3     4    2
    90    28    26   am
    91    93    94    1
    92     2     5    1
    93     2     1    1
    94    27    26    2
    95   115   114    1
    96   124   123    1
    97    34    33    1
    98    34    35   ar
    99    39    37   ar
   100    33    30    1
   101    26    25    1
   102    31    30    1
   103    31    32    2
   104    94    95    2
   105    37    35   ar
   106    30    29    1
   107   123   122    1
   108   114   113    1
   109    25    24    1
   110   122   119    1
   111   119   120    1
   112   119   118    1
   113   113   110    1
   114   120   121    2
   115    24    21    1
   116   110   111    1
   117   110   109    1
   118    23    22    2
   119   111   112    2
   120    21    22    1
   121    21    20    1
