@<TRIPOS>MOLECULE
tmp/1gojA00.pdb
 131 127 0 0 0
SMALL
GASTEIGER

@<TRIPOS>ATOM
      1  N         33.1130   40.0350   43.8330 N.3    12  ARG12      -0.1231
      2  CA        32.4800   39.2090   42.8140 C.3    12  ARG12       0.1694
      3  C         31.1760   38.6140   43.3300 C.2    12  ARG12       0.2592
      4  O         31.1660   37.8790   44.3180 O.2    12  ARG12      -0.2718
      5  CB        33.3860   38.0600   42.3620 C.3    12  ARG12       0.0321
      6  CG        32.7030   37.2040   41.2850 C.3    12  ARG12       0.0489
      7  CD        33.4920   35.9780   40.8600 C.3    12  ARG12       0.2205
      8  NE        32.9610   35.4640   39.5990 N.pl3  12  ARG12      -0.0865
      9  CZ        33.3710   34.3520   38.9950 C.cat  12  ARG12       0.5346
     10  NH1       34.3270   33.6080   39.5330 N.pl3  12  ARG12       0.1354
     11  NH2       32.8260   33.9940   37.8400 N.pl3  12  ARG12       0.1354
     12  N         30.0830   38.9380   42.6490 N.am   13  PHE13      -0.1962
     13  CA        28.7700   38.4300   43.0090 C.3    13  PHE13       0.1771
     14  C         28.4160   37.3050   42.0480 C.2    13  PHE13       0.2619
     15  O         28.4730   37.4760   40.8250 O.2    13  PHE13      -0.2715
     16  CB        27.7060   39.5310   42.8980 C.3    13  PHE13       0.0574
     17  CG        27.7780   40.5740   43.9900 C.ar   13  PHE13      -0.0200
     18  CD1       26.9690   40.4730   45.1210 C.ar   13  PHE13      -0.0042
     19  CD2       28.6700   41.6390   43.8950 C.ar   13  PHE13      -0.0042
     20  CE1       27.0470   41.4160   46.1420 C.ar   13  PHE13      -0.0003
     21  CE2       28.7600   42.5900   44.9100 C.ar   13  PHE13      -0.0003
     22  CZ        27.9460   42.4800   46.0390 C.ar   13  PHE13      -0.0000
     23  N         28.0590   36.1550   42.6060 N.am   14  ARG14      -0.1964
     24  CA        27.6560   35.0060   41.8120 C.3    14  ARG14       0.1714
     25  C         26.1370   35.0400   41.6970 C.2    14  ARG14       0.2458
     26  O         25.4690   35.7930   42.4040 O.2    14  ARG14      -0.2730
     27  CB        28.0370   33.7020   42.5270 C.3    14  ARG14       0.0347
     28  CG        27.3840   33.5550   43.9200 C.3    14  ARG14       0.0492
     29  CD        27.2720   32.0900   44.3340 C.3    14  ARG14       0.2205
     30  NE        26.8380   31.8950   45.7210 N.pl3  14  ARG14      -0.0865
     31  CZ        25.6470   32.2360   46.2110 C.cat  14  ARG14       0.5346
     32  NH1       24.7270   32.8100   45.4380 N.pl3  14  ARG14       0.1354
     33  NH2       25.3660   31.9830   47.4840 N.pl3  14  ARG14       0.1354
     34  N         25.5750   34.2380   40.7840 N.am   15  PRO15      -0.2727
     35  CA        24.1160   34.1880   40.6250 C.3    15  PRO15       0.1402
     36  C         23.5610   33.5410   41.9020 C.2    15  PRO15       0.2269
     37  O         24.2980   32.8720   42.6250 O.2    15  PRO15      -0.2865
     38  CB        23.9280   33.2680   39.4200 C.3    15  PRO15       0.0296
     39  CG        25.1820   33.5090   38.6120 C.3    15  PRO15       0.0237
     40  CD        26.2590   33.5600   39.6660 C.3    15  PRO15       0.0939
     41  N         21.8680   30.8620   44.2960 N.3    17  ASN17      -0.1240
     42  CA        21.9170   29.4090   44.1970 C.3    17  ASN17       0.1653
     43  C         20.5320   28.8160   44.4530 C.2    17  ASN17       0.2266
     44  O         19.5780   29.5450   44.7450 O.2    17  ASN17      -0.2867
     45  CB        22.9530   28.8280   45.1730 C.3    17  ASN17       0.1155
     46  CG        22.6230   29.0980   46.6330 C.2    17  ASN17       0.2627
     47  OD1       23.4980   29.0050   47.4980 O.2    17  ASN17      -0.2716
     48  ND2       21.3650   29.4100   46.9200 N.am   17  ASN17      -0.0877
     49  N         26.8370   39.3470   38.5240 N.3    56  MET56      -0.1245
     50  CA        26.4540   37.9560   38.2790 C.3    56  MET56       0.1570
     51  C         26.7230   37.4180   36.8790 C.2    56  MET56       0.2261
     52  O         26.8110   36.2020   36.6920 O.2    56  MET56      -0.2867
     53  CB        24.9700   37.7570   38.5910 C.3    56  MET56       0.0387
     54  CG        24.5760   38.0350   40.0250 C.3    56  MET56       0.0595
     55  SD        24.5510   39.7890   40.4490 S.3    56  MET56      -0.1393
     56  CE        22.8930   40.2430   39.8830 C.3    56  MET56       0.0692
     57  N         29.4570   38.2380   34.9540 N.3    58  CYS58      -0.1235
     58  CA        30.8890   38.0810   34.6970 C.3    58  CYS58       0.1677
     59  C         31.3800   36.6370   34.7320 C.2    58  CYS58       0.2270
     60  O         31.0940   35.8890   35.6680 O.2    58  CYS58      -0.2867
     61  CB        31.6840   38.9400   35.6790 C.3    58  CYS58       0.0956
     62  SG        31.3320   40.7130   35.4880 S.3    58  CYS58      -0.0801
     63  N         30.6350   30.3800   53.1850 N.3    89  THR89      -0.1203
     64  CA        30.5710   29.0900   52.5130 C.3    89  THR89       0.1994
     65  C         29.4930   29.1680   51.4330 C.2    89  THR89       0.2618
     66  O         28.4120   29.7150   51.6580 O.2    89  THR89      -0.2717
     67  CB        30.2520   27.9580   53.5200 C.3    89  THR89       0.1784
     68  OG1       31.3550   27.8220   54.4290 O.3    89  THR89      -0.2211
     69  CG2       30.0370   26.6220   52.8000 C.3    89  THR89       0.0376
     70  N         29.8040   28.6370   50.2540 N.am   90  GLY90      -0.1942
     71  CA        28.8600   28.6780   49.1510 C.3    90  GLY90       0.2014
     72  C         28.8990   29.9740   48.3410 C.2    90  GLY90       0.2639
     73  O         28.1500   30.1130   47.3750 O.2    90  GLY90      -0.2714
     74  N         29.7650   30.9170   48.7080 N.am   91  ALA91      -0.1963
     75  CA        29.8380   32.1900   47.9830 C.3    91  ALA91       0.1728
     76  C         30.5950   32.1170   46.6550 C.2    91  ALA91       0.2617
     77  O         30.3620   32.9330   45.7630 O.2    91  ALA91      -0.2715
     78  CB        30.4480   33.2670   48.8710 C.3    91  ALA91       0.0334
     79  N         31.5070   31.1560   46.5190 N.am   92  GLY92      -0.1940
     80  CA        32.2360   31.0320   45.2670 C.3    92  GLY92       0.2014
     81  C         33.7440   31.1770   45.3420 C.2    92  GLY92       0.2639
     82  O         34.3770   31.5560   44.3520 O.2    92  GLY92      -0.2714
     83  N         34.3310   30.8780   46.4990 N.am   93  LYS93      -0.1963
     84  CA        35.7790   30.9830   46.6550 C.3    93  LYS93       0.1728
     85  C         36.5260   29.9470   45.8110 C.2    93  LYS93       0.2617
     86  O         37.4100   30.3040   45.0250 O.2    93  LYS93      -0.2715
     87  CB        36.1680   30.8290   48.1260 C.3    93  LYS93       0.0311
     88  CG        35.6530   31.9490   49.0210 C.3    93  LYS93       0.0038
     89  CD        36.0700   31.7440   50.4680 C.3    93  LYS93       0.0206
     90  CE        35.5630   30.4080   51.0110 C.3    93  LYS93       0.1093
     91  NZ        34.0800   30.3420   51.0890 N.3    93  LYS93      -0.1314
     92  N         36.1740   28.6710   45.9700 N.am   94  SER94      -0.1936
     93  CA        36.8190   27.5890   45.2090 C.3    94  SER94       0.2055
     94  C         36.5060   27.6900   43.7160 C.2    94  SER94       0.2643
     95  O         37.3700   27.4480   42.8680 O.2    94  SER94      -0.2714
     96  CB        36.3630   26.2110   45.7260 C.3    94  SER94       0.2130
     97  OG        36.6600   26.0610   47.1040 O.3    94  SER94      -0.2179
     98  N         35.2620   28.0260   43.3940 N.am   95  TYR95      -0.1959
     99  CA        34.8630   28.1730   42.0000 C.3    95  TYR95       0.1771
    100  C         35.7330   29.2400   41.3360 C.2    95  TYR95       0.2620
    101  O         36.1570   29.0890   40.1980 O.2    95  TYR95      -0.2715
    102  CB        33.3950   28.5930   41.9090 C.3    95  TYR95       0.0574
    103  CG        32.9310   28.8440   40.4930 C.ar   95  TYR95      -0.0198
    104  CD1       32.4770   27.7970   39.6880 C.ar   95  TYR95      -0.0009
    105  CD2       32.9770   30.1210   39.9430 C.ar   95  TYR95      -0.0009
    106  CE1       32.0750   28.0180   38.3670 C.ar   95  TYR95       0.0417
    107  CE2       32.5810   30.3540   38.6160 C.ar   95  TYR95       0.0417
    108  CZ        32.1310   29.3000   37.8410 C.ar   95  TYR95       0.1957
    109  OH        31.7270   29.5290   36.5450 O.3    95  TYR95      -0.2866
    110  N         35.9920   30.3250   42.0590 N.am   96  THR96      -0.1951
    111  CA        36.8040   31.4200   41.5340 C.3    96  THR96       0.1897
    112  C         38.2870   31.0660   41.4400 C.2    96  THR96       0.2313
    113  O         38.9570   31.4340   40.4730 O.2    96  THR96      -0.2863
    114  CB        36.6560   32.6900   42.4120 C.3    96  THR96       0.1794
    115  OG1       35.2920   33.1330   42.3960 O.3    96  THR96      -0.2208
    116  CG2       37.5440   33.8070   41.8960 C.3    96  THR96       0.0378
    117  N         34.9500   24.9440   38.5710 N.3   100  THR100     -0.1218
    118  CA        34.1170   23.7440   38.6270 C.3   100  THR100      0.1862
    119  C         34.9830   22.5110   38.3670 C.2   100  THR100      0.2287
    120  O         34.9100   21.5000   39.0750 O.2   100  THR100     -0.2866
    121  CB        32.9960   23.8300   37.5660 C.3   100  THR100      0.1770
    122  OG1       32.1650   22.6670   37.6460 O.3   100  THR100     -0.2211
    123  CG2       33.5920   23.9380   36.1700 C.3   100  THR100      0.0375
    124  N         42.5590   29.8940   49.1210 N.3   234  ASP234     -0.1239
    125  CA        41.1250   29.6300   49.1660 C.3   234  ASP234      0.1674
    126  C         40.8310   29.5100   50.6610 C.2   234  ASP234      0.2266
    127  O         41.0530   28.4620   51.2690 O.2   234  ASP234     -0.2867
    128  CB        40.7980   28.3150   48.4570 C.3   234  ASP234      0.1410
    129  CG        39.3030   28.0440   48.3850 C.2   234  ASP234      0.3668
    130  OD1       38.5310   28.7250   49.1050 O.co2 234  ASP234     -0.2456
    131  OD2       38.9020   27.1360   47.6150 O.co2 234  ASP234     -0.2456
@<TRIPOS>BOND
     1    58    59    1
     2    58    57    1
     3    58    61    1
     4    59    60    2
     5    62    61    1
     6   123   121    1
     7   109   108    1
     8    52    51    2
     9    51    50    1
    10   121   122    1
    11   121   118    1
    12    11     9    1
    13   108   106   ar
    14   108   107   ar
    15    50    49    1
    16    50    53    1
    17   119   118    1
    18   119   120    2
    19   106   104   ar
    20   117   118    1
    21    53    54    1
    22    39    38    1
    23    39    40    1
    24   107   105   ar
    25     9    10    1
    26     9     8    2
    27    38    35    1
    28     8     7    1
    29    40    34    1
    30   104   103   ar
    31    56    55    1
    32   105   103   ar
    33    54    55    1
    34   101   100    2
    35   113   112    2
    36   103   102    1
    37    35    34    1
    38    35    36    1
    39    34    25   am
    40    15    14    2
    41     7     6    1
    42     6     5    1
    43   100    99    1
    44   100   110   am
    45   112   111    1
    46   111   110    1
    47   111   114    1
    48    25    24    1
    49    25    26    2
    50    24    27    1
    51    24    23    1
    52   116   114    1
    53    36    37    2
    54   102    99    1
    55    99    98    1
    56    14    23   am
    57    14    13    1
    58     5     2    1
    59   115   114    1
    60    27    28    1
    61    12    13    1
    62    12     3   am
    63     2     3    1
    64     2     1    1
    65    95    94    2
    66    16    13    1
    67    16    17    1
    68     3     4    2
    69    98    94   am
    70    94    93    1
    71    19    17   ar
    72    19    21   ar
    73    28    29    1
    74    17    18   ar
    75    42    41    1
    76    42    43    1
    77    42    45    1
    78    29    30    1
    79    82    81    2
    80    43    44    2
    81    21    22   ar
    82    86    85    2
    83    18    20   ar
    84    45    46    1
    85    93    96    1
    86    93    92    1
    87    80    81    1
    88    80    79    1
    89    81    83   am
    90    32    31    1
    91    30    31    2
    92    96    97    1
    93    77    76    2
    94    85    92   am
    95    85    84    1
    96    22    20   ar
    97    31    33    1
    98    83    84    1
    99    79    76   am
   100    46    48   am
   101    46    47    2
   102    76    75    1
   103    84    87    1
   104    73    72    2
   105   131   129   ar
   106    75    74    1
   107    75    78    1
   108    87    88    1
   109    72    74   am
   110    72    71    1
   111   129   128    1
   112   129   130   ar
   113   128   125    1
   114    88    89    1
   115   124   125    1
   116    71    70    1
   117   125   126    1
   118    70    65   am
   119    89    90    1
   120   126   127    2
   121    90    91    1
   122    65    66    2
   123    65    64    1
   124    64    63    1
   125    64    67    1
   126    69    67    1
   127    67    68    1
