@<TRIPOS>MOLECULE
tmp/1golA00.pdb
 175 164 0 0 0
SMALL
GASTEIGER

@<TRIPOS>ATOM
      1  N        -20.1600   20.5630   38.2800 N.3    28  ILE28      -0.1231
      2  CA       -19.8750   20.2090   39.6680 C.3    28  ILE28       0.1692
      3  C        -18.4730   20.6470   40.0930 C.2    28  ILE28       0.2593
      4  O        -17.6550   19.8200   40.5010 O.2    28  ILE28      -0.2718
      5  CB       -19.9630   18.6950   39.8560 C.3    28  ILE28       0.0266
      6  CG1      -21.2590   18.1790   39.2420 C.3    28  ILE28       0.0019
      7  CG2      -19.8670   18.3410   41.3250 C.3    28  ILE28       0.0020
      8  CD1      -21.2710   16.6870   39.0550 C.3    28  ILE28       0.0001
      9  N        -18.2020   21.9450   40.0070 N.am   29  GLY29      -0.1942
     10  CA       -16.8890   22.4450   40.3710 C.3    29  GLY29       0.2014
     11  C        -15.8930   22.0310   39.3060 C.2    29  GLY29       0.2638
     12  O        -16.2190   21.2250   38.4340 O.2    29  GLY29      -0.2714
     13  N        -14.6800   22.5700   39.3590 N.am   30  GLU30      -0.1977
     14  CA       -13.6820   22.2130   38.3590 C.3    30  GLU30       0.1602
     15  C        -12.2370   22.3760   38.8160 C.2    30  GLU30       0.2287
     16  O        -11.8590   21.9370   39.9040 O.2    30  GLU30      -0.2864
     17  CB       -13.9080   23.0240   37.0740 C.3    30  GLU30       0.0415
     18  CG       -14.0880   24.5290   37.2800 C.3    30  GLU30       0.1163
     19  CD       -15.2330   25.1080   36.4530 C.2    30  GLU30       0.3649
     20  OE1      -16.4120   24.8670   36.8150 O.co2  30  GLU30      -0.2457
     21  OE2      -14.9540   25.8020   35.4440 O.co2  30  GLU30      -0.2457
     22  N         -7.4570   22.1970   35.1530 N.3    33  TYR33      -0.1241
     23  CA        -6.9710   20.9490   34.5510 C.3    33  TYR33       0.1605
     24  C         -8.0780   20.2110   33.8110 C.2    33  TYR33       0.2264
     25  O         -7.8520   19.6040   32.7620 O.2    33  TYR33      -0.2867
     26  CB        -6.4000   20.0400   35.6390 C.3    33  TYR33       0.0534
     27  CG        -5.3430   20.7270   36.4650 C.ar   33  TYR33      -0.0201
     28  CD1       -4.0220   20.7700   36.0320 C.ar   33  TYR33      -0.0009
     29  CD2       -5.6690   21.3720   37.6560 C.ar   33  TYR33      -0.0009
     30  CE1       -3.0500   21.4370   36.7550 C.ar   33  TYR33       0.0417
     31  CE2       -4.7020   22.0450   38.3890 C.ar   33  TYR33       0.0417
     32  CZ        -3.3920   22.0730   37.9290 C.ar   33  TYR33       0.1957
     33  OH        -2.4180   22.7380   38.6380 O.3    33  TYR33      -0.2866
     34  N        -15.6540   19.3730   35.8730 N.3    36  VAL36      -0.1245
     35  CA       -16.4850   18.2590   36.3170 C.3    36  VAL36       0.1561
     36  C        -17.9680   18.5930   36.2610 C.2    36  VAL36       0.2260
     37  O        -18.3550   19.7220   36.5290 O.2    36  VAL36      -0.2867
     38  CB       -16.1050   17.8330   37.7490 C.3    36  VAL36       0.0252
     39  CG1      -16.9250   16.6260   38.1730 C.3    36  VAL36       0.0019
     40  CG2      -14.6220   17.5140   37.8080 C.3    36  VAL36       0.0019
     41  N        -20.7360   10.9730   36.7780 N.3    49  ALA49      -0.1245
     42  CA       -19.8410   12.1220   36.8760 C.3    49  ALA49       0.1562
     43  C        -18.8530   12.0000   35.7160 C.2    49  ALA49       0.2260
     44  O        -18.3290   10.9150   35.4540 O.2    49  ALA49      -0.2867
     45  CB       -19.1000   12.1140   38.2240 C.3    49  ALA49       0.0290
     46  N        -15.3930   13.7950   33.9640 N.3    51  ARG51      -0.1245
     47  CA       -14.3280   14.7590   34.1560 C.3    51  ARG51       0.1563
     48  C        -13.7220   15.0350   32.7780 C.2    51  ARG51       0.2260
     49  O        -13.3760   14.1020   32.0440 O.2    51  ARG51      -0.2867
     50  CB       -13.2490   14.2040   35.0730 C.3    51  ARG51       0.0307
     51  CG       -13.7470   13.3560   36.2180 C.3    51  ARG51       0.0489
     52  CD       -12.7780   13.4920   37.4280 C.3    51  ARG51       0.2205
     53  NE       -11.5190   12.7720   37.2180 N.pl3  51  ARG51      -0.0865
     54  CZ       -11.4310   11.5100   36.8050 C.cat  51  ARG51       0.5346
     55  NH1      -12.5480   10.8350   36.5190 N.pl3  51  ARG51       0.1354
     56  NH2      -10.2190   11.0060   36.6200 N.pl3  51  ARG51       0.1354
     57  N        -12.8390    3.7630   43.1610 N.3    81  ILE81      -0.1245
     58  CA       -13.6740    4.2600   42.0520 C.3    81  ILE81       0.1561
     59  C        -13.2630    3.6650   40.7010 C.2    81  ILE81       0.2260
     60  O        -12.0850    3.3890   40.4480 O.2    81  ILE81      -0.2867
     61  CB       -13.6450    5.8090   41.9240 C.3    81  ILE81       0.0252
     62  CG1      -14.8430    6.2840   41.0950 C.3    81  ILE81       0.0019
     63  CG2      -12.3520    6.2600   41.2800 C.3    81  ILE81       0.0019
     64  CD1      -15.9990    6.8190   41.9140 C.3    81  ILE81       0.0001
     65  N        -17.2610    8.3360   35.3990 N.3   102  GLN102     -0.1231
     66  CA       -17.2480    7.5160   36.6070 C.3   102  GLN102      0.1698
     67  C        -18.5600    7.6350   37.3470 C.2   102  GLN102      0.2592
     68  O        -19.4030    8.4760   37.0240 O.2   102  GLN102     -0.2718
     69  CB       -16.1350    7.9490   37.5540 C.3   102  GLN102      0.0381
     70  CG       -14.7370    7.6900   37.0530 C.3   102  GLN102      0.0905
     71  CD       -13.7310    8.5220   37.8160 C.2   102  GLN102      0.2608
     72  OE1      -14.0360    9.6410   38.2370 O.2   102  GLN102     -0.2717
     73  NE2      -12.5280    7.9790   38.0110 N.am  102  GLN102     -0.0878
     74  N        -18.7190    6.7930   38.3600 N.am  103  ASP103     -0.1960
     75  CA       -19.9300    6.8170   39.1640 C.3   103  ASP103      0.1840
     76  C        -20.0780    8.1840   39.8250 C.2   103  ASP103      0.2622
     77  O        -19.0950    8.8580   40.1250 O.2   103  ASP103     -0.2715
     78  CB       -19.8710    5.7230   40.2330 C.3   103  ASP103      0.1450
     79  CG       -20.0810    4.3400   39.6570 C.2   103  ASP103      0.3671
     80  OD1      -20.8260    4.2220   38.6610 O.co2 103  ASP103     -0.2456
     81  OD2      -19.5020    3.3720   40.1960 O.co2 103  ASP103     -0.2456
     82  N        -21.3180    8.5920   40.0350 N.am  104  LEU104     -0.1963
     83  CA       -21.5910    9.8660   40.6730 C.3   104  LEU104      0.1728
     84  C        -21.6280    9.6480   42.1870 C.2   104  LEU104      0.2616
     85  O        -22.4070    8.8180   42.6820 O.2   104  LEU104     -0.2715
     86  CB       -22.9400   10.4190   40.1920 C.3   104  LEU104      0.0311
     87  CG       -23.3630   11.7950   40.7140 C.3   104  LEU104      0.0022
     88  CD1      -22.2710   12.8230   40.4870 C.3   104  LEU104      0.0001
     89  CD2      -24.6320   12.2160   40.0070 C.3   104  LEU104      0.0001
     90  N        -20.7810   10.3770   42.9170 N.am  105  MET105     -0.1963
     91  CA       -20.7410   10.2590   44.3710 C.3   105  MET105      0.1736
     92  C        -21.0720   11.6090   44.9950 C.2   105  MET105      0.2616
     93  O        -20.3520   12.5860   44.7950 O.2   105  MET105     -0.2715
     94  CB       -19.3620    9.7820   44.8390 C.3   105  MET105      0.0427
     95  CG       -18.9040    8.4440   44.2520 C.3   105  MET105      0.0599
     96  SD       -19.6750    6.9540   44.9550 S.3   105  MET105     -0.1393
     97  CE       -18.8440    6.8290   46.6010 C.3   105  MET105      0.0692
     98  N        -22.1690   11.6410   45.7500 N.am  106  GLU106     -0.1963
     99  CA       -22.6470   12.8450   46.4080 C.3   106  GLU106      0.1733
    100  C        -21.5900   13.7550   47.0580 C.2   106  GLU106      0.2617
    101  O        -21.5530   14.9580   46.7980 O.2   106  GLU106     -0.2715
    102  CB       -23.7000   12.4670   47.4490 C.3   106  GLU106      0.0429
    103  CG       -24.0710   13.6220   48.3830 C.3   106  GLU106      0.1163
    104  CD       -25.3670   14.3520   47.9740 C.2   106  GLU106      0.3649
    105  OE1      -25.3080   15.2900   47.1340 O.co2 106  GLU106     -0.2457
    106  OE2      -26.4460   13.9870   48.5050 O.co2 106  GLU106     -0.2457
    107  N        -20.7410   13.1950   47.9120 N.am  107  THR107     -0.1937
    108  CA       -19.7140   13.9920   48.5740 C.3   107  THR107      0.2028
    109  C        -18.4040   13.2170   48.7630 C.2   107  THR107      0.2642
    110  O        -18.2120   12.1600   48.1630 O.2   107  THR107     -0.2714
    111  CB       -20.2200   14.4860   49.9530 C.3   107  THR107      0.1808
    112  OG1      -19.2300   15.3230   50.5550 O.3   107  THR107     -0.2208
    113  CG2      -20.5110   13.3160   50.8800 C.3   107  THR107      0.0379
    114  N        -17.5050   13.7780   49.5760 N.am  108  ASP108     -0.1971
    115  CA       -16.2240   13.1570   49.9060 C.3   108  ASP108      0.1709
    116  C        -15.9180   13.4980   51.3630 C.2   108  ASP108      0.2293
    117  O        -16.5090   14.4270   51.9080 O.2   108  ASP108     -0.2864
    118  CB       -15.0960   13.6340   48.9680 C.3   108  ASP108      0.1436
    119  CG       -14.8470   15.1310   49.0300 C.2   108  ASP108      0.3671
    120  OD1      -14.6510   15.6750   50.1290 O.co2 108  ASP108     -0.2456
    121  OD2      -14.8310   15.7730   47.9610 O.co2 108  ASP108     -0.2456
    122  N        -15.3790   17.3720   52.5560 N.3   111  LYS111     -0.1245
    123  CA       -16.5490   18.2180   52.7700 C.3   111  LYS111      0.1561
    124  C        -17.4030   17.7940   53.9540 C.2   111  LYS111      0.2260
    125  O        -17.9560   18.6290   54.6690 O.2   111  LYS111     -0.2867
    126  CB       -17.4050   18.2350   51.5100 C.3   111  LYS111      0.0271
    127  CG       -16.6440   18.5930   50.2530 C.3   111  LYS111      0.0035
    128  CD       -17.4890   18.2790   49.0210 C.3   111  LYS111      0.0206
    129  CE       -16.6500   18.1780   47.7440 C.3   111  LYS111      0.1093
    130  NZ       -17.2220   17.2090   46.7460 N.3   111  LYS111     -0.1314
    131  N         -6.1080   11.2300   51.3420 N.3   148  LYS148     -0.1245
    132  CA        -6.4830   12.3330   52.2120 C.3   148  LYS148      0.1561
    133  C         -7.9910   12.3520   52.0810 C.2   148  LYS148      0.2260
    134  O         -8.5200   11.8060   51.1130 O.2   148  LYS148     -0.2867
    135  CB        -5.8880   13.6380   51.7070 C.3   148  LYS148      0.0271
    136  CG        -6.1990   13.8950   50.2640 C.3   148  LYS148      0.0035
    137  CD        -5.2890   14.9370   49.6690 C.3   148  LYS148      0.0206
    138  CE        -5.3470   14.8390   48.1550 C.3   148  LYS148      0.1093
    139  NZ        -4.9930   16.1060   47.4720 N.3   148  LYS148     -0.1314
    140  N        -10.2390   14.2730   50.9040 N.3   150  SER150     -0.1202
    141  CA       -10.8120   14.6650   49.6210 C.3   150  SER150      0.2020
    142  C        -10.6540   13.5950   48.5400 C.2   150  SER150      0.2618
    143  O        -11.2770   13.6900   47.4850 O.2   150  SER150     -0.2717
    144  CB       -10.1900   15.9790   49.1550 C.3   150  SER150      0.2103
    145  OG        -8.9180   15.7540   48.5770 O.3   150  SER150     -0.2182
    146  N         -9.8290   12.5830   48.7990 N.am  151  ASN151     -0.1974
    147  CA        -9.6290   11.4970   47.8310 C.3   151  ASN151      0.1688
    148  C        -10.5000   10.2990   48.1840 C.2   151  ASN151      0.2292
    149  O        -10.3580    9.2240   47.6150 O.2   151  ASN151     -0.2864
    150  CB        -8.1550   11.0690   47.7790 C.3   151  ASN151      0.1181
    151  CG        -7.3280   11.9510   46.8550 C.2   151  ASN151      0.2629
    152  OD1       -6.1120   12.0240   46.9750 O.2   151  ASN151     -0.2716
    153  ND2       -7.9940   12.6320   45.9310 N.am  151  ASN151     -0.0877
    154  N        -14.3940    9.3210   48.3520 N.3   153  LEU153     -0.1245
    155  CA       -15.7710    9.6570   47.9700 C.3   153  LEU153      0.1561
    156  C        -16.8490    8.8680   48.6850 C.2   153  LEU153      0.2260
    157  O        -16.7360    7.6680   48.8910 O.2   153  LEU153     -0.2867
    158  CB       -15.9560    9.4720   46.4690 C.3   153  LEU153      0.0270
    159  CG       -14.8080    9.9790   45.6040 C.3   153  LEU153      0.0019
    160  CD1      -14.8940    9.3770   44.2080 C.3   153  LEU153      0.0001
    161  CD2      -14.8700   11.4780   45.5710 C.3   153  LEU153      0.0001
    162  N        -10.2660    7.3480   45.2650 N.3   163  CYS163     -0.1221
    163  CA       -10.0680    7.8590   43.9110 C.3   163  CYS163      0.1808
    164  C         -8.7400    8.6180   43.8440 C.2   163  CYS163      0.2601
    165  O         -8.0620    8.7830   44.8570 O.2   163  CYS163     -0.2717
    166  CB       -11.2150    8.8020   43.5110 C.3   163  CYS163      0.0970
    167  SG       -11.1760   10.4500   44.2840 S.3   163  CYS163     -0.0800
    168  N         -8.3780    9.0610   42.6410 N.am  164  ASP164     -0.1973
    169  CA        -7.1590    9.8310   42.4130 C.3   164  ASP164      0.1709
    170  C         -5.8510    9.0350   42.5200 C.2   164  ASP164      0.2293
    171  O         -5.1550    9.1000   43.5380 O.2   164  ASP164     -0.2864
    172  CB        -7.1250   11.0210   43.3760 C.3   164  ASP164      0.1436
    173  CG        -6.2570   12.1620   42.8780 C.2   164  ASP164      0.3671
    174  OD1       -5.5810   12.0000   41.8410 O.co2 164  ASP164     -0.2456
    175  OD2       -6.2550   13.2270   43.5360 O.co2 164  ASP164     -0.2456
@<TRIPOS>BOND
     1    49    48    2
     2    25    24    2
     3    48    47    1
     4    24    23    1
     5    46    47    1
     6    47    50    1
     7    23    22    1
     8    23    26    1
     9    50    51    1
    10    65    66    1
    11    21    19   ar
    12    44    43    2
    13    26    27    1
    14    43    42    1
    15    34    35    1
    16    28    27   ar
    17    28    30   ar
    18    51    52    1
    19    36    35    1
    20    36    37    2
    21    35    38    1
    22    19    20   ar
    23    19    18    1
    24    27    29   ar
    25    55    54    1
    26    66    67    1
    27    66    69    1
    28    56    54    1
    29    30    32   ar
    30    41    42    1
    31    54    53    2
    32    42    45    1
    33    68    67    2
    34    70    69    1
    35    70    71    1
    36    17    18    1
    37    17    14    1
    38    53    52    1
    39    67    74   am
    40    29    31   ar
    41    38    40    1
    42    38    39    1
    43    71    73   am
    44    71    72    2
    45    32    31   ar
    46    32    33    1
    47     1     2    1
    48    14    15    1
    49    14    13    1
    50    74    75    1
    51    12    11    2
    52    80    79   ar
    53    15    16    2
    54     8     6    1
    55    75    76    1
    56    75    78    1
    57     6     5    1
    58    11    13   am
    59    11    10    1
    60    79    81   ar
    61    79    78    1
    62     2     5    1
    63     2     3    1
    64    76    82   am
    65    76    77    2
    66     5     7    1
    67     9     3   am
    68     9    10    1
    69    89    87    1
    70    82    83    1
    71     3     4    2
    72    86    83    1
    73    86    87    1
    74    60    59    2
    75    88    87    1
    76    83    84    1
    77    59    58    1
    78    62    64    1
    79    62    61    1
    80    63    61    1
    81   174   173   ar
    82    61    58    1
    83    58    57    1
    84    84    85    2
    85    84    90   am
    86   169   170    1
    87   169   168    1
    88   169   172    1
    89   170   171    2
    90   168   164   am
    91   173   172    1
    92   173   175   ar
    93    90    91    1
    94   166   163    1
    95   166   167    1
    96   164   163    1
    97   164   165    2
    98   163   162    1
    99   160   159    1
   100    95    94    1
   101    95    96    1
   102    91    94    1
   103    91    92    1
   104    93    92    2
   105    96    97    1
   106    92    98   am
   107   161   159    1
   108   159   158    1
   109    98    99    1
   110   153   151   am
   111    99   100    1
   112    99   102    1
   113   158   155    1
   114   130   129    1
   115   101   100    2
   116   151   152    2
   117   151   150    1
   118   100   107   am
   119   105   104   ar
   120   102   103    1
   121   139   138    1
   122   143   142    2
   123   149   148    2
   124   129   128    1
   125   150   147    1
   126   147   148    1
   127   147   146    1
   128   107   108    1
   129   121   119   ar
   130   155   154    1
   131   155   156    1
   132   104   103    1
   133   104   106   ar
   134   138   137    1
   135   110   109    2
   136   142   146   am
   137   142   141    1
   138   108   109    1
   139   108   111    1
   140   145   144    1
   141   156   157    2
   142   109   114   am
   143   118   119    1
   144   118   115    1
   145   128   127    1
   146   119   120   ar
   147   144   141    1
   148   114   115    1
   149   141   140    1
   150   137   136    1
   151   115   116    1
   152   111   112    1
   153   111   113    1
   154   127   126    1
   155   136   135    1
   156   134   133    2
   157   131   132    1
   158   116   117    2
   159   126   123    1
   160   135   132    1
   161   133   132    1
   162   122   123    1
   163   123   124    1
   164   124   125    2
