@<TRIPOS>MOLECULE
tmp/1goqA03.pdb
 83 80 0 0 0
SMALL
GASTEIGER

@<TRIPOS>ATOM
      1  N         -2.4950  -13.1320   25.8400 N.3    12  ARG12      -0.1231
      2  CA        -3.9430  -13.2760   25.7190 C.3    12  ARG12       0.1694
      3  C         -4.2710  -14.1580   24.5060 C.2    12  ARG12       0.2593
      4  O         -5.4290  -14.5140   24.2690 O.2    12  ARG12      -0.2718
      5  CB        -4.6190  -11.9040   25.5800 C.3    12  ARG12       0.0321
      6  CG        -4.6010  -11.0630   26.8450 C.3    12  ARG12       0.0489
      7  CD        -5.2770  -11.7740   28.0100 C.3    12  ARG12       0.2205
      8  NE        -6.7290  -11.8270   27.8470 N.pl3  12  ARG12      -0.0865
      9  CZ        -7.5820  -10.9730   28.4080 C.cat  12  ARG12       0.5346
     10  NH1       -7.1380   -9.9910   29.1760 N.pl3  12  ARG12       0.1354
     11  NH2       -8.8830  -11.0990   28.1940 N.pl3  12  ARG12       0.1354
     12  N         -3.2430  -14.5050   23.7380 N.am   13  GLY13      -0.1942
     13  CA        -3.4490  -15.3670   22.5880 C.3    13  GLY13       0.2014
     14  C         -3.4290  -14.6690   21.2500 C.2    13  GLY13       0.2639
     15  O         -3.6990  -15.2930   20.2290 O.2    13  GLY13      -0.2714
     16  N         -3.1160  -13.3790   21.2450 N.am   14  LYS14      -0.1963
     17  CA        -3.0710  -12.6190   19.9920 C.3    14  LYS14       0.1728
     18  C         -1.6630  -12.6420   19.4010 C.2    14  LYS14       0.2616
     19  O         -0.7130  -13.1080   20.0420 O.2    14  LYS14      -0.2715
     20  CB        -3.5330  -11.1730   20.2250 C.3    14  LYS14       0.0311
     21  CG        -5.0130  -11.0600   20.6070 C.3    14  LYS14       0.0038
     22  CD        -5.9120  -11.8170   19.6220 C.3    14  LYS14       0.0206
     23  CE        -7.3970  -11.5310   19.8700 C.3    14  LYS14       0.1093
     24  NZ        -8.2920  -12.3190   18.9650 N.3    14  LYS14      -0.1314
     25  N         -1.5250  -12.1370   18.1790 N.am   15  VAL15      -0.1977
     26  CA        -0.2270  -12.1530   17.5250 C.3    15  VAL15       0.1596
     27  C          0.6740  -10.9640   17.8360 C.2    15  VAL15       0.2287
     28  O          1.8820  -11.1420   18.0580 O.2    15  VAL15      -0.2864
     29  CB        -0.3840  -12.2750   15.9900 C.3    15  VAL15       0.0276
     30  CG1        0.9840  -12.3520   15.3280 C.3    15  VAL15       0.0022
     31  CG2       -1.2080  -13.5140   15.6440 C.3    15  VAL15       0.0022
     32  N         -9.7460  -15.0450    6.7890 N.3   230  PRO230     -0.2102
     33  CA        -8.9290  -15.7070    7.8080 C.3   230  PRO230      0.1504
     34  C         -8.5740  -14.7620    8.9570 C.2   230  PRO230      0.2575
     35  O         -8.4680  -15.1800   10.1060 O.2   230  PRO230     -0.2718
     36  CB        -7.6860  -16.1510    7.0410 C.3   230  PRO230      0.0282
     37  CG        -8.1100  -16.1920    5.6200 C.3   230  PRO230      0.0208
     38  CD        -9.1320  -15.1210    5.4540 C.3   230  PRO230      0.0893
     39  N         -8.3900  -13.4850    8.6380 N.am  231  GLU231     -0.1980
     40  CA        -8.0330  -12.4950    9.6500 C.3   231  GLU231      0.1602
     41  C         -8.6770  -11.1250    9.4470 C.2   231  GLU231      0.2287
     42  O         -9.1500  -10.7820    8.3640 O.2   231  GLU231     -0.2864
     43  CB        -6.5170  -12.2560    9.6630 C.3   231  GLU231      0.0415
     44  CG        -5.6300  -13.4770    9.6210 C.3   231  GLU231      0.1163
     45  CD        -4.1550  -13.1200    9.4530 C.2   231  GLU231      0.3649
     46  OE1       -3.8270  -11.9170    9.3410 O.co2 231  GLU231     -0.2457
     47  OE2       -3.3200  -14.0460    9.4350 O.co2 231  GLU231     -0.2457
     48  N        -10.0780   -8.5490   21.3420 N.3   255  LEU255     -0.1245
     49  CA        -9.9680   -9.7260   22.1970 C.3   255  LEU255      0.1561
     50  C        -11.2260  -10.5870   22.0490 C.2   255  LEU255      0.2260
     51  O        -11.1860  -11.8100   22.2130 O.2   255  LEU255     -0.2867
     52  CB        -9.8020   -9.3220   23.6650 C.3   255  LEU255      0.0270
     53  CG        -8.4650   -8.7000   24.0780 C.3   255  LEU255      0.0019
     54  CD1       -8.4900   -8.3720   25.5770 C.3   255  LEU255      0.0001
     55  CD2       -7.3360   -9.6550   23.7410 C.3   255  LEU255      0.0001
     56  N        -12.2540  -13.7620   17.5010 N.3   258  GLN258     -0.1231
     57  CA       -11.1840  -14.7230   17.3270 C.3   258  GLN258      0.1698
     58  C        -10.2910  -14.4500   16.1330 C.2   258  GLN258      0.2593
     59  O         -9.1030  -14.6610   16.2370 O.2   258  GLN258     -0.2718
     60  CB       -11.7280  -16.2130   17.3610 C.3   258  GLN258      0.0381
     61  CG       -12.5020  -16.6220   18.6650 C.3   258  GLN258      0.0905
     62  CD       -12.8870  -18.0790   18.6460 C.2   258  GLN258      0.2608
     63  OE1      -12.1730  -18.9100   18.1050 O.2   258  GLN258     -0.2717
     64  NE2      -14.0650  -18.4140   19.2350 N.am  258  GLN258     -0.0878
     65  N        -10.8620  -13.9500   15.0480 N.am  259  SER259     -0.1938
     66  CA       -10.0200  -13.6940   13.8810 C.3   259  SER259      0.2055
     67  C         -9.1500  -12.4190   13.9340 C.2   259  SER259      0.2643
     68  O         -8.4320  -12.1040   12.9770 O.2   259  SER259     -0.2714
     69  CB       -10.8690  -13.6810   12.6300 C.3   259  SER259      0.2130
     70  OG       -11.9540  -12.7820   12.7910 O.3   259  SER259     -0.2179
     71  N         -9.2440  -11.6690   15.0290 N.am  260  CYS260     -0.1953
     72  CA        -8.4540  -10.4450   15.1590 C.3   260  CYS260      0.1843
     73  C         -7.0530  -10.8260   15.6310 C.2   260  CYS260      0.2625
     74  O         -6.8630  -11.2570   16.7680 O.2   260  CYS260     -0.2714
     75  CB        -9.0880   -9.4940   16.1660 C.3   260  CYS260      0.0997
     76  SG        -8.2140   -7.9020   16.2610 S.3   260  CYS260     -0.0797
     77  N         -6.0710  -10.6720   14.7500 N.am  261  VAL261     -0.1977
     78  CA        -4.6980  -11.0420   15.0880 C.3   261  VAL261      0.1596
     79  C         -3.9180  -10.0330   15.9280 C.2   261  VAL261      0.2287
     80  O         -2.9820  -10.4030   16.6410 O.2   261  VAL261     -0.2864
     81  CB        -3.8730  -11.3580   13.8240 C.3   261  VAL261      0.0276
     82  CG1       -4.4660  -12.5640   13.1230 C.3   261  VAL261      0.0022
     83  CG2       -3.8310  -10.1480   12.8960 C.3   261  VAL261      0.0022
@<TRIPOS>BOND
     1    38    37    1
     2    38    32    1
     3    37    36    1
     4    32    33    1
     5    36    33    1
     6    33    34    1
     7    42    41    2
     8    39    34   am
     9    39    40    1
    10    34    35    2
    11    46    45   ar
    12    47    45   ar
    13    41    40    1
    14    45    44    1
    15    44    43    1
    16    40    43    1
    17    69    70    1
    18    69    66    1
    19    83    81    1
    20    68    67    2
    21    82    81    1
    22    81    78    1
    23    66    67    1
    24    66    65    1
    25    67    71   am
    26    77    78    1
    27    77    73   am
    28    71    72    1
    29    65    58   am
    30    78    79    1
    31    72    73    1
    32    72    75    1
    33    30    29    1
    34    73    74    2
    35    31    29    1
    36    79    80    2
    37    29    26    1
    38    58    59    2
    39    58    57    1
    40    75    76    1
    41    57    60    1
    42    57    56    1
    43    60    61    1
    44    26    27    1
    45    26    25    1
    46    27    28    2
    47    63    62    2
    48    25    18   am
    49    62    61    1
    50    62    64   am
    51    24    23    1
    52    18    17    1
    53    18    19    2
    54    22    23    1
    55    22    21    1
    56    17    20    1
    57    17    16    1
    58    20    21    1
    59    15    14    2
    60    16    14   am
    61    14    13    1
    62    48    49    1
    63    50    49    1
    64    50    51    2
    65    49    52    1
    66    13    12    1
    67    52    53    1
    68    12     3   am
    69    55    53    1
    70    53    54    1
    71     4     3    2
    72     3     2    1
    73     5     2    1
    74     5     6    1
    75     2     1    1
    76     6     7    1
    77     8     7    1
    78     8     9    2
    79    11     9    1
    80     9    10    1
