@<TRIPOS>MOLECULE
tmp/1gorA00.pdb
 143 139 0 0 0
SMALL
GASTEIGER

@<TRIPOS>ATOM
      1  N         11.5400    8.4740   12.7010 N.3    25  ARG25      -0.1245
      2  CA        11.1620    8.3170   14.1060 C.3    25  ARG25       0.1563
      3  C         12.1830    7.4650   14.8570 C.2    25  ARG25       0.2260
      4  O         12.5990    7.8060   15.9670 O.2    25  ARG25      -0.2867
      5  CB         9.7870    7.6510   14.2400 C.3    25  ARG25       0.0307
      6  CG         8.6600    8.3650   13.5230 C.3    25  ARG25       0.0489
      7  CD         8.5790    9.8310   13.9010 C.3    25  ARG25       0.2205
      8  NE         7.4230   10.4700   13.2780 N.pl3  25  ARG25      -0.0865
      9  CZ         7.3480   11.7650   12.9940 C.cat  25  ARG25       0.5346
     10  NH1        8.3690   12.5660   13.2750 N.pl3  25  ARG25       0.1354
     11  NH2        6.2540   12.2580   12.4270 N.pl3  25  ARG25       0.1354
     12  N          5.0730    3.9810    8.1310 N.3    45  GLU45      -0.1231
     13  CA         4.0980    5.0600    8.0210 C.3    45  GLU45       0.1699
     14  C          4.0200    5.6650    6.6160 C.2    45  GLU45       0.2592
     15  O          2.9400    6.0710    6.1690 O.2    45  GLU45      -0.2718
     16  CB         4.4080    6.1480    9.0620 C.3    45  GLU45       0.0402
     17  CG         3.2780    7.1480    9.2780 C.3    45  GLU45       0.1161
     18  CD         3.5000    8.0520   10.4860 C.2    45  GLU45       0.3649
     19  OE1        2.6710    8.9580   10.7070 O.co2  45  GLU45      -0.2457
     20  OE2        4.4960    7.8530   11.2140 O.co2  45  GLU45      -0.2457
     21  N          5.1480    5.7090    5.9140 N.am   46  ASN46      -0.1974
     22  CA         5.1780    6.2890    4.5690 C.3    46  ASN46       0.1688
     23  C          6.1750    5.6680    3.5850 C.2    46  ASN46       0.2292
     24  O          5.9480    5.7000    2.3710 O.2    46  ASN46      -0.2864
     25  CB         5.4900    7.7920    4.6530 C.3    46  ASN46       0.1181
     26  CG         4.3530    8.5980    5.2310 C.2    46  ASN46       0.2629
     27  OD1        3.3420    8.8310    4.5690 O.2    46  ASN46      -0.2716
     28  ND2        4.5100    9.0320    6.4780 N.am   46  ASN46      -0.0877
     29  N          4.9730    3.4460    0.5030 N.3    49  LYS49      -0.1245
     30  CA         3.8950    3.9010   -0.3540 C.3    49  LYS49       0.1561
     31  C          4.4450    4.1050   -1.7580 C.2    49  LYS49       0.2260
     32  O          5.6620    4.1380   -1.9650 O.2    49  LYS49      -0.2867
     33  CB         3.2710    5.1810    0.2070 C.3    49  LYS49       0.0271
     34  CG         2.5720    4.9360    1.5420 C.3    49  LYS49       0.0035
     35  CD         2.0100    6.2000    2.1720 C.3    49  LYS49       0.0206
     36  CE         1.3400    5.8690    3.5050 C.3    49  LYS49       0.1093
     37  NZ         0.8540    7.0840    4.2150 N.3    49  LYS49      -0.1314
     38  N          2.5930   -1.6300    3.7060 N.3    82  HIS82      -0.1241
     39  CA         1.5510   -0.6170    3.4910 C.3    82  HIS82       0.1621
     40  C          2.1630    0.3140    2.4220 C.2    82  HIS82       0.2264
     41  O          3.3530    0.6540    2.5920 O.2    82  HIS82      -0.2867
     42  CB         1.4160    0.1690    4.8020 C.3    82  HIS82       0.0745
     43  CG         0.2740    1.1310    4.8310 C.ar   82  HIS82       0.0817
     44  ND1       -1.0420    0.7250    4.9040 N.ar   82  HIS82      -0.2268
     45  CD2        0.2540    2.4830    4.8340 C.ar   82  HIS82       0.1154
     46  CE1       -1.8220    1.7890    4.9560 C.ar   82  HIS82       0.1986
     47  NE2       -1.0620    2.8690    4.9150 N.ar   82  HIS82      -0.2212
     48  N         -3.2130    2.4510   -3.9400 N.3    86  TRP86      -0.1241
     49  CA        -3.9500    3.5150   -3.2610 C.3    86  TRP86       0.1605
     50  C         -3.9690    4.7530   -4.1470 C.2    86  TRP86       0.2264
     51  O         -3.0050    5.0140   -4.8590 O.2    86  TRP86      -0.2867
     52  CB        -3.2510    3.8240   -1.9410 C.3    86  TRP86       0.0550
     53  CG        -3.9470    4.7670   -1.0250 C.ar   86  TRP86       0.0003
     54  CD1       -5.2930    4.8910   -0.8350 C.ar   86  TRP86       0.0946
     55  CD2       -3.3230    5.6430   -0.0790 C.ar   86  TRP86       0.0152
     56  NE1       -5.5450    5.7860    0.1770 N.ar   86  TRP86      -0.2442
     57  CE2       -4.3540    6.2600    0.6580 C.ar   86  TRP86       0.0810
     58  CE3       -1.9880    5.9590    0.2170 C.ar   86  TRP86       0.0012
     59  CZ2       -4.0940    7.1810    1.6800 C.ar   86  TRP86       0.0191
     60  CZ3       -1.7290    6.8770    1.2350 C.ar   86  TRP86       0.0001
     61  CH2       -2.7790    7.4760    1.9540 C.ar   86  TRP86       0.0015
     62  N         -1.0650    9.7670   -2.3640 N.3    89  GLN89      -0.1245
     63  CA         0.3840    9.6490   -2.4010 C.3    89  GLN89       0.1566
     64  C          0.7780    8.7960   -3.6010 C.2    89  GLN89       0.2260
     65  O          1.6170    7.8970   -3.5140 O.2    89  GLN89      -0.2867
     66  CB         0.9040    9.0670   -1.0760 C.3    89  GLN89       0.0367
     67  CG         0.9600   10.1320    0.0340 C.3    89  GLN89       0.0905
     68  CD         1.3710    9.6010    1.4000 C.2    89  GLN89       0.2608
     69  OE1        0.5270    9.2400    2.2220 O.2    89  GLN89      -0.2717
     70  NE2        2.6730    9.5570    1.6470 N.am   89  GLN89      -0.0878
     71  N         -5.8920   -0.1230   -0.6110 N.3   129  ASN129     -0.1225
     72  CA        -6.2290    0.7940    0.4720 C.3   129  ASN129      0.1785
     73  C         -7.3320    1.7750    0.0800 C.2   129  ASN129      0.2597
     74  O         -7.2910    2.3710   -1.0040 O.2   129  ASN129     -0.2718
     75  CB        -4.9630    1.5670    0.8760 C.3   129  ASN129      0.1169
     76  CG        -5.0740    2.2140    2.2510 C.2   129  ASN129      0.2627
     77  OD1       -5.5850    1.6100    3.1920 O.2   129  ASN129     -0.2716
     78  ND2       -4.5680    3.4400    2.3770 N.am  129  ASN129     -0.0877
     79  N         -8.3190    1.9240    0.9600 N.am  130  GLU130     -0.1979
     80  CA        -9.4310    2.8600    0.7620 C.3   130  GLU130      0.1602
     81  C        -10.1260    2.7790   -0.6060 C.2   130  GLU130      0.2287
     82  O        -10.2570    3.7870   -1.3060 O.2   130  GLU130     -0.2864
     83  CB        -8.9230    4.2880    1.0100 C.3   130  GLU130      0.0415
     84  CG        -8.1030    4.4110    2.2920 C.3   130  GLU130      0.1163
     85  CD        -7.7210    5.8400    2.6330 C.2   130  GLU130      0.3649
     86  OE1       -7.6010    6.6790    1.7190 O.co2 130  GLU130     -0.2457
     87  OE2       -7.5260    6.1200    3.8360 O.co2 130  GLU130     -0.2457
     88  N         -8.8260    0.6070    9.6980 N.3   206  GLN206     -0.1245
     89  CA        -7.9290    1.6630   10.1420 C.3   206  GLN206      0.1566
     90  C         -8.2490    2.1280   11.5530 C.2   206  GLN206      0.2260
     91  O         -7.3520    2.2600   12.3870 O.2   206  GLN206     -0.2867
     92  CB        -7.9750    2.8370    9.1610 C.3   206  GLN206      0.0367
     93  CG        -7.4180    2.4840    7.7880 C.3   206  GLN206      0.0905
     94  CD        -7.3850    3.6700    6.8550 C.2   206  GLN206      0.2608
     95  OE1       -7.5670    4.8110    7.2840 O.2   206  GLN206     -0.2717
     96  NE2       -7.1440    3.4140    5.5710 N.am  206  GLN206     -0.0878
     97  N         -9.5420    5.1580   12.7750 N.3   208  HIS208     -0.1241
     98  CA        -9.1050    6.5060   13.1160 C.3   208  HIS208      0.1621
     99  C        -10.3620    7.1060   13.7270 C.2   208  HIS208      0.2264
    100  O        -11.2290    7.6250   13.0130 O.2   208  HIS208     -0.2867
    101  CB        -8.6990    7.2800   11.8620 C.3   208  HIS208      0.0745
    102  CG        -7.3970    6.8340   11.2790 C.ar  208  HIS208      0.0817
    103  ND1       -6.2020    6.9580   11.9550 N.ar  208  HIS208     -0.2268
    104  CD2       -7.1010    6.2570   10.0910 C.ar  208  HIS208      0.1154
    105  CE1       -5.2250    6.4750   11.2050 C.ar  208  HIS208      0.1986
    106  NE2       -5.7440    6.0450   10.0710 N.ar  208  HIS208     -0.2212
    107  N         -4.7140    1.0330   12.0320 N.3   236  GLU236     -0.1245
    108  CA        -4.1490    2.3720   12.1890 C.3   236  GLU236      0.1567
    109  C         -4.8240    3.1280   13.3260 C.2   236  GLU236      0.2260
    110  O         -5.1790    4.2950   13.1860 O.2   236  GLU236     -0.2867
    111  CB        -4.3220    3.1510   10.8800 C.3   236  GLU236      0.0388
    112  CG        -3.6800    2.4710    9.6630 C.3   236  GLU236      0.1160
    113  CD        -4.0070    3.1740    8.3570 C.2   236  GLU236      0.3649
    114  OE1       -4.3730    4.3600    8.4070 O.co2 236  GLU236     -0.2457
    115  OE2       -3.8890    2.5510    7.2770 O.co2 236  GLU236     -0.2457
    116  N         -1.3770    4.0220   15.2660 N.3   266  TRP266     -0.1241
    117  CA        -0.7230    4.8510   14.2590 C.3   266  TRP266      0.1605
    118  C          0.2910    5.8840   14.7450 C.2   266  TRP266      0.2264
    119  O          0.1140    7.0940   14.5320 O.2   266  TRP266     -0.2867
    120  CB        -1.7860    5.5360   13.3960 C.3   266  TRP266      0.0550
    121  CG        -1.3440    5.7440   11.9860 C.ar  266  TRP266      0.0003
    122  CD1       -1.2430    6.9330   11.3210 C.ar  266  TRP266      0.0946
    123  CD2       -0.9180    4.7310   11.0660 C.ar  266  TRP266      0.0152
    124  NE1       -0.7760    6.7210   10.0440 N.ar  266  TRP266     -0.2442
    125  CE2       -0.5710    5.3780    9.8630 C.ar  266  TRP266      0.0810
    126  CE3       -0.7950    3.3340   11.1440 C.ar  266  TRP266      0.0012
    127  CZ2       -0.1060    4.6790    8.7400 C.ar  266  TRP266      0.0191
    128  CZ3       -0.3340    2.6400   10.0320 C.ar  266  TRP266      0.0001
    129  CH2        0.0040    3.3150    8.8450 C.ar  266  TRP266      0.0015
    130  N         -0.1180   12.1940   12.9200 N.3   274  TRP274     -0.1241
    131  CA        -0.5870   12.9280   11.7530 C.3   274  TRP274      0.1605
    132  C         -1.8200   13.7420   12.1780 C.2   274  TRP274      0.2264
    133  O         -2.2820   14.6230   11.4510 O.2   274  TRP274     -0.2867
    134  CB        -0.9200   11.9590   10.6050 C.3   274  TRP274      0.0550
    135  CG        -2.1320   11.1060   10.8200 C.ar  274  TRP274      0.0003
    136  CD1       -2.4290   10.3570   11.9230 C.ar  274  TRP274      0.0946
    137  CD2       -3.2100   10.9070    9.8980 C.ar  274  TRP274      0.0152
    138  NE1       -3.6280    9.7040   11.7450 N.ar  274  TRP274     -0.2442
    139  CE2       -4.1280   10.0250   10.5100 C.ar  274  TRP274      0.0810
    140  CE3       -3.4910   11.3910    8.6120 C.ar  274  TRP274      0.0012
    141  CZ2       -5.3100    9.6160    9.8810 C.ar  274  TRP274      0.0191
    142  CZ3       -4.6640   10.9840    7.9860 C.ar  274  TRP274      0.0001
    143  CH2       -5.5600   10.1040    8.6240 C.ar  274  TRP274      0.0015
@<TRIPOS>BOND
     1    51    50    2
     2    50    49    1
     3    48    49    1
     4    64    65    2
     5    64    63    1
     6    49    52    1
     7    63    62    1
     8    63    66    1
     9    32    31    2
    10    52    53    1
    11    31    30    1
    12    82    81    2
    13    66    67    1
    14    53    54   ar
    15    53    55   ar
    16    74    73    2
    17    54    56   ar
    18    71    72    1
    19    81    80    1
    20    30    33    1
    21    30    29    1
    22    55    58   ar
    23    55    57   ar
    24    67    68    1
    25    73    72    1
    26    73    79   am
    27    56    57   ar
    28    33    34    1
    29    58    60   ar
    30    72    75    1
    31    57    59   ar
    32    80    79    1
    33    80    83    1
    34    75    76    1
    35    83    84    1
    36    60    61   ar
    37    68    70   am
    38    68    69    2
    39    34    35    1
    40    59    61   ar
    41    86    85   ar
    42    35    36    1
    43    76    78   am
    44    76    77    2
    45    84    85    1
    46    24    23    2
    47    40    41    2
    48    40    39    1
    49    85    87   ar
    50    39    38    1
    51    39    42    1
    52    36    37    1
    53    23    22    1
    54    27    26    2
    55    22    25    1
    56    22    21    1
    57    25    26    1
    58    42    43    1
    59    43    45   ar
    60    43    44   ar
    61    45    47   ar
    62    44    46   ar
    63    47    46   ar
    64    26    28   am
    65    96    94   am
    66    21    14   am
    67    15    14    2
    68    14    13    1
    69    94    95    2
    70    94    93    1
    71   115   113   ar
    72    93    92    1
    73   142   140   ar
    74   142   143   ar
    75    13    12    1
    76    13    16    1
    77   113   114   ar
    78   113   112    1
    79   140   137   ar
    80   143   141   ar
    81   127   129   ar
    82   127   125   ar
    83   129   128   ar
    84    16    17    1
    85    92    89    1
    86    17    18    1
    87   112   111    1
    88    88    89    1
    89   125   124   ar
    90   125   123   ar
    91   141   139   ar
    92   137   139   ar
    93   137   135   ar
    94   128   126   ar
    95   124   122   ar
    96   106   104   ar
    97   106   105   ar
    98   104   102   ar
    99    89    90    1
   100    18    19   ar
   101    18    20   ar
   102   139   138   ar
   103   134   135    1
   104   134   131    1
   105   135   136   ar
   106   111   108    1
   107   123   126   ar
   108   123   121   ar
   109   105   103   ar
   110   102   101    1
   111   102   103   ar
   112   122   121   ar
   113   133   132    2
   114    90    91    2
   115   138   136   ar
   116   131   132    1
   117   131   130    1
   118   101    98    1
   119   121   120    1
   120   107   108    1
   121   108   109    1
   122    11     9    1
   123     1     2    1
   124    97    98    1
   125     9    10    1
   126     9     8    2
   127   100    99    2
   128    98    99    1
   129   110   109    2
   130     8     7    1
   131   120   117    1
   132     6     7    1
   133     6     5    1
   134     2     5    1
   135     2     3    1
   136   117   118    1
   137   117   116    1
   138   119   118    2
   139     3     4    2
