@<TRIPOS>MOLECULE
tmp/1gosA01.pdb
 132 128 0 0 0
SMALL
GASTEIGER

@<TRIPOS>ATOM
      1  N         58.9980  151.1990   15.0970 N.3    54  GLY54      -0.1210
      2  CA        58.3930  150.1390   15.8690 C.3    54  GLY54       0.1956
      3  C         58.6110  150.4930   17.3150 C.2    54  GLY54       0.2612
      4  O         58.2150  151.5570   17.7300 O.2    54  GLY54      -0.2717
      5  N         59.3020  149.6790   18.0820 N.am   55  GLY55      -0.1942
      6  CA        59.2940  149.9970   19.4840 C.3    55  GLY55       0.2014
      7  C         60.6540  150.5280   19.8500 C.2    55  GLY55       0.2640
      8  O         61.6380  149.8880   19.4830 O.2    55  GLY55      -0.2714
      9  N         60.7600  151.6540   20.5560 N.am   56  SER56      -0.1935
     10  CA        62.1150  152.0330   20.9360 C.3    56  SER56       0.2055
     11  C         62.5320  152.2680   22.3580 C.2    56  SER56       0.2643
     12  O         63.6880  152.0730   22.6930 O.2    56  SER56      -0.2714
     13  CB        62.7120  153.1440   20.0860 C.3    56  SER56       0.2130
     14  OG        64.1270  153.0450   20.2530 O.3    56  SER56      -0.2179
     15  N         61.6770  152.8560   23.1600 N.am   57  TYR57      -0.1973
     16  CA        62.1390  153.1830   24.4810 C.3    57  TYR57       0.1639
     17  C         62.5510  151.9410   25.2910 C.2    57  TYR57       0.2290
     18  O         62.2170  150.8180   24.9300 O.2    57  TYR57      -0.2864
     19  CB        61.0720  154.0270   25.1280 C.3    57  TYR57       0.0560
     20  CG        60.7730  155.1940   24.2430 C.ar   57  TYR57      -0.0198
     21  CD1       59.6760  155.1990   23.3950 C.ar   57  TYR57      -0.0009
     22  CD2       61.6260  156.2760   24.2180 C.ar   57  TYR57      -0.0009
     23  CE1       59.4480  156.2640   22.5370 C.ar   57  TYR57       0.0417
     24  CE2       61.3610  157.3640   23.4220 C.ar   57  TYR57       0.0417
     25  CZ        60.2840  157.3440   22.5850 C.ar   57  TYR57       0.1957
     26  OH        60.0920  158.4220   21.7840 O.3    57  TYR57      -0.2866
     27  N         45.7160  157.9390   30.3350 N.3   165  PHE165     -0.1241
     28  CA        46.7280  157.0600   30.8660 C.3   165  PHE165      0.1605
     29  C         46.5880  155.6730   30.3090 C.2   165  PHE165      0.2264
     30  O         47.4670  154.8370   30.5030 O.2   165  PHE165     -0.2867
     31  CB        46.5960  156.8310   32.3520 C.3   165  PHE165      0.0534
     32  CG        47.4950  155.7250   32.8430 C.ar  165  PHE165     -0.0203
     33  CD1       48.8400  155.7370   32.5460 C.ar  165  PHE165     -0.0042
     34  CD2       47.0000  154.6630   33.5640 C.ar  165  PHE165     -0.0042
     35  CE1       49.6840  154.7360   32.9900 C.ar  165  PHE165     -0.0003
     36  CE2       47.8450  153.6650   34.0530 C.ar  165  PHE165     -0.0003
     37  CZ        49.1830  153.6850   33.7400 C.ar  165  PHE165     -0.0000
     38  N         46.9090  155.3190   26.3830 N.3   168  LEU168     -0.1231
     39  CA        48.3320  155.3940   26.1240 C.3   168  LEU168      0.1693
     40  C         49.1170  154.1220   26.3630 C.2   168  LEU168      0.2592
     41  O         49.9060  153.7360   25.4920 O.2   168  LEU168     -0.2718
     42  CB        48.9770  156.5080   26.9150 C.3   168  LEU168      0.0284
     43  CG        50.1320  157.1910   26.1630 C.3   168  LEU168      0.0019
     44  CD1       51.1550  157.7560   27.1290 C.3   168  LEU168      0.0001
     45  CD2       50.7800  156.2050   25.2630 C.3   168  LEU168      0.0001
     46  N         48.9650  153.5150   27.5440 N.am  169  CYS169     -0.1970
     47  CA        49.7930  152.3560   27.9070 C.3   169  CYS169      0.1712
     48  C         49.4850  151.1280   27.0830 C.2   169  CYS169      0.2296
     49  O         50.3530  150.5900   26.3810 O.2   169  CYS169     -0.2864
     50  CB        49.5740  151.9570   29.3500 C.3   169  CYS169      0.0983
     51  SG        50.6200  152.9260   30.5420 S.3   169  CYS169     -0.0798
     52  N         56.1840  153.1450   35.2310 N.3   195  ILE195     -0.1231
     53  CA        55.7280  153.0530   33.8590 C.3   195  ILE195      0.1692
     54  C         55.5900  154.4210   33.1910 C.2   195  ILE195      0.2591
     55  O         56.0520  154.6350   32.0710 O.2   195  ILE195     -0.2718
     56  CB        54.4100  152.3040   33.8490 C.3   195  ILE195      0.0266
     57  CG1       54.4690  151.1640   32.8600 C.3   195  ILE195      0.0019
     58  CG2       53.2830  153.1910   33.4220 C.3   195  ILE195      0.0020
     59  CD1       53.1540  150.8300   32.2560 C.3   195  ILE195      0.0001
     60  N         54.9700  155.3710   33.8710 N.am  196  ILE196     -0.1980
     61  CA        54.6910  156.6190   33.2020 C.3   196  ILE196      0.1595
     62  C         55.9410  157.4750   33.0320 C.2   196  ILE196      0.2287
     63  O         56.0640  158.2240   32.0500 O.2   196  ILE196     -0.2864
     64  CB        53.6090  157.3280   33.9710 C.3   196  ILE196      0.0276
     65  CG1       52.3810  156.4300   33.9490 C.3   196  ILE196      0.0022
     66  CG2       53.2840  158.6940   33.3540 C.3   196  ILE196      0.0022
     67  CD1       51.1260  157.1210   34.4240 C.3   196  ILE196      0.0001
     68  N         60.4560  155.4200   29.9490 N.3   203  GLN203     -0.1245
     69  CA        60.9590  155.9190   28.6750 C.3   203  GLN203      0.1566
     70  C         62.2880  156.6720   28.7120 C.2   203  GLN203      0.2260
     71  O         62.4980  157.5820   27.9160 O.2   203  GLN203     -0.2867
     72  CB        59.8850  156.7100   27.9520 C.3   203  GLN203      0.0367
     73  CG        58.7250  155.8520   27.5220 C.3   203  GLN203      0.0905
     74  CD        57.9440  155.2870   28.6950 C.2   203  GLN203      0.2608
     75  OE1       57.5200  156.0360   29.5810 O.2   203  GLN203     -0.2717
     76  NE2       57.7600  153.9650   28.7110 N.am  203  GLN203     -0.0878
     77  N         52.3340  155.2120   14.5940 N.3   293  LYS293     -0.1245
     78  CA        53.4260  156.0390   15.1220 C.3   293  LYS293      0.1561
     79  C         53.8220  157.1450   14.1630 C.2   293  LYS293      0.2260
     80  O         53.9020  156.9260   12.9560 O.2   293  LYS293     -0.2867
     81  CB        54.6450  155.1940   15.3510 C.3   293  LYS293      0.0271
     82  CG        55.7330  155.8930   16.0840 C.3   293  LYS293      0.0035
     83  CD        56.8530  154.8970   16.3750 C.3   293  LYS293      0.0206
     84  CE        57.8420  155.4760   17.3420 C.3   293  LYS293      0.1093
     85  NZ        57.5790  154.9100   18.6660 N.3   293  LYS293     -0.1314
     86  N         50.2880  162.0570   23.1120 N.3   323  TYR323     -0.1241
     87  CA        51.5300  162.0260   23.8380 C.3   323  TYR323      0.1605
     88  C         52.6550  162.2070   22.8790 C.2   323  TYR323      0.2264
     89  O         52.7120  161.5360   21.8610 O.2   323  TYR323     -0.2867
     90  CB        51.7040  160.7020   24.5170 C.3   323  TYR323      0.0534
     91  CG        52.8260  160.6890   25.5000 C.ar  323  TYR323     -0.0201
     92  CD1       52.7630  161.4470   26.6710 C.ar  323  TYR323     -0.0009
     93  CD2       53.9160  159.8620   25.3120 C.ar  323  TYR323     -0.0009
     94  CE1       53.7590  161.3640   27.6500 C.ar  323  TYR323      0.0417
     95  CE2       54.9090  159.7510   26.2700 C.ar  323  TYR323      0.0417
     96  CZ        54.8340  160.5070   27.4320 C.ar  323  TYR323      0.1957
     97  OH        55.8790  160.4370   28.3420 O.3   323  TYR323     -0.2866
     98  N         52.0040  159.4610   19.1830 N.3   340  PHE340     -0.1241
     99  CA        51.2080  158.2710   18.9020 C.3   340  PHE340      0.1605
    100  C         49.7810  158.6260   18.5370 C.2   340  PHE340      0.2264
    101  O         49.2280  159.5440   19.1300 O.2   340  PHE340     -0.2867
    102  CB        51.1610  157.4470   20.1590 C.3   340  PHE340      0.0534
    103  CG        52.4600  156.7920   20.4900 C.ar  340  PHE340     -0.0203
    104  CD1       53.0100  156.9050   21.7340 C.ar  340  PHE340     -0.0042
    105  CD2       53.1220  156.0430   19.5600 C.ar  340  PHE340     -0.0042
    106  CE1       54.1870  156.2720   22.0410 C.ar  340  PHE340     -0.0003
    107  CE2       54.2800  155.3930   19.8770 C.ar  340  PHE340     -0.0003
    108  CZ        54.8150  155.5170   21.1060 C.ar  340  PHE340     -0.0000
    109  N         51.8890  147.8200   20.2230 N.3   395  TYR395     -0.1241
    110  CA        52.4890  147.3770   21.4480 C.3   395  TYR395      0.1605
    111  C         52.0210  145.9260   21.6080 C.2   395  TYR395      0.2264
    112  O         52.7150  145.0240   21.1410 O.2   395  TYR395     -0.2867
    113  CB        52.1730  148.1990   22.6790 C.3   395  TYR395      0.0534
    114  CG        52.2000  149.7120   22.6590 C.ar  395  TYR395     -0.0201
    115  CD1       52.3840  150.4490   21.5050 C.ar  395  TYR395     -0.0009
    116  CD2       51.8700  150.3970   23.8240 C.ar  395  TYR395     -0.0009
    117  CE1       52.2770  151.8130   21.5380 C.ar  395  TYR395      0.0417
    118  CE2       51.7690  151.7510   23.8610 C.ar  395  TYR395      0.0417
    119  CZ        51.9990  152.4510   22.7310 C.ar  395  TYR395      0.1957
    120  OH        51.9150  153.8150   22.8430 O.3   395  TYR395     -0.2866
    121  N         56.4120  144.7310   26.5490 N.3   432  TYR432     -0.1241
    122  CA        57.5680  145.5300   26.1600 C.3   432  TYR432      0.1605
    123  C         58.6760  144.6140   25.6250 C.2   432  TYR432      0.2264
    124  O         58.6370  143.3960   25.8180 O.2   432  TYR432     -0.2867
    125  CB        58.0860  146.3340   27.3610 C.3   432  TYR432      0.0534
    126  CG        57.2410  147.5120   27.8510 C.ar  432  TYR432     -0.0201
    127  CD1       55.8840  147.3890   28.1370 C.ar  432  TYR432     -0.0009
    128  CD2       57.8470  148.7160   28.1500 C.ar  432  TYR432     -0.0009
    129  CE1       55.1560  148.4610   28.6510 C.ar  432  TYR432      0.0417
    130  CE2       57.1410  149.7690   28.6910 C.ar  432  TYR432      0.0417
    131  CZ        55.8020  149.6470   28.9370 C.ar  432  TYR432      0.1957
    132  OH        55.1570  150.7450   29.4600 O.3   432  TYR432     -0.2866
@<TRIPOS>BOND
     1    80    79    2
     2    79    78    1
     3    77    78    1
     4     1     2    1
     5    78    81    1
     6    81    82    1
     7     2     3    1
     8    82    83    1
     9    83    84    1
    10     3     4    2
    11     3     5   am
    12    84    85    1
    13     5     6    1
    14   100    99    1
    15   100   101    2
    16    99    98    1
    17    99   102    1
    18     8     7    2
    19     6     7    1
    20   105   107   ar
    21   105   103   ar
    22     7     9   am
    23   107   108   ar
    24    13    14    1
    25    13    10    1
    26   102   103    1
    27   109   110    1
    28   103   104   ar
    29     9    10    1
    30    10    11    1
    31   108   106   ar
    32   112   111    2
    33   110   111    1
    34   110   113    1
    35   115   117   ar
    36   115   114   ar
    37   117   119   ar
    38   104   106   ar
    39    26    25    1
    40    89    88    2
    41    11    12    2
    42    11    15   am
    43    23    25   ar
    44    23    21   ar
    45    25    24   ar
    46   114   113    1
    47   114   116   ar
    48   119   120    1
    49   119   118   ar
    50    88    87    1
    51    86    87    1
    52    15    16    1
    53    21    20   ar
    54    24    22   ar
    55   116   118   ar
    56    87    90    1
    57    22    20   ar
    58    20    19    1
    59    16    19    1
    60    16    17    1
    61    90    91    1
    62    18    17    2
    63    45    43    1
    64    93    91   ar
    65    93    95   ar
    66    41    40    2
    67    91    92   ar
    68   123   124    2
    69   123   122    1
    70    39    40    1
    71    39    38    1
    72    39    42    1
    73   122   121    1
    74   122   125    1
    75    43    42    1
    76    43    44    1
    77    95    96   ar
    78    40    46   am
    79    49    48    2
    80    92    94   ar
    81    48    47    1
    82   125   126    1
    83    96    94   ar
    84    96    97    1
    85    73    72    1
    86    73    74    1
    87    46    47    1
    88   126   127   ar
    89   126   128   ar
    90    47    50    1
    91    71    70    2
    92    72    69    1
    93   127   129   ar
    94   128   130   ar
    95   129   131   ar
    96    69    70    1
    97    69    68    1
    98   130   131   ar
    99    74    76   am
   100    74    75    2
   101   131   132    1
   102    50    51    1
   103    29    30    2
   104    29    28    1
   105    27    28    1
   106    28    31    1
   107    63    62    2
   108    55    54    2
   109    59    57    1
   110    31    32    1
   111    33    32   ar
   112    33    35   ar
   113    32    34   ar
   114    57    56    1
   115    35    37   ar
   116    62    61    1
   117    54    53    1
   118    54    60   am
   119    61    60    1
   120    61    64    1
   121    66    64    1
   122    58    56    1
   123    34    36   ar
   124    37    36   ar
   125    56    53    1
   126    53    52    1
   127    65    64    1
   128    65    67    1
