@<TRIPOS>MOLECULE
tmp/1goyA00.pdb
 133 129 0 0 0
SMALL
GASTEIGER

@<TRIPOS>ATOM
      1  N          7.1860   49.3140    5.1670 N.3    25  LYS25      -0.1245
      2  CA         6.3240   48.4560    5.9620 C.3    25  LYS25       0.1561
      3  C          4.8300   48.7740    5.8560 C.2    25  LYS25       0.2260
      4  O          4.0160   47.8830    5.6720 O.2    25  LYS25      -0.2867
      5  CB         6.8250   48.4440    7.3990 C.3    25  LYS25       0.0271
      6  CG         7.8380   47.3250    7.5330 C.3    25  LYS25       0.0035
      7  CD         8.5770   47.3270    8.8290 C.3    25  LYS25       0.0206
      8  CE         9.6470   46.3020    8.6860 C.3    25  LYS25       0.1093
      9  NZ        10.8390   46.6930    9.4490 N.3    25  LYS25      -0.1314
     10  N         12.4050   52.0890    5.6060 N.3    52  ASP52      -0.1225
     11  CA        12.0030   52.4800    6.9590 C.3    52  ASP52       0.1805
     12  C         13.1860   52.9140    7.8340 C.2    52  ASP52       0.2598
     13  O         14.3150   52.5020    7.5770 O.2    52  ASP52      -0.2718
     14  CB        11.2420   51.3290    7.6280 C.3    52  ASP52       0.1424
     15  CG         9.8850   51.0830    6.9970 C.2    52  ASP52       0.3668
     16  OD1        8.9860   51.9220    7.2000 O.co2  52  ASP52      -0.2456
     17  OD2        9.6230   50.1210    6.2690 O.co2  52  ASP52      -0.2456
     18  N         12.8860   53.6250    8.9140 N.am   53  VAL53      -0.1966
     19  CA        13.8700   54.1920    9.8410 C.3    53  VAL53       0.1727
     20  C         14.6240   53.1170   10.6160 C.2    53  VAL53       0.2616
     21  O         14.0100   52.2200   11.1730 O.2    53  VAL53      -0.2715
     22  CB        13.2060   55.1770   10.8900 C.3    53  VAL53       0.0290
     23  CG1       14.2480   55.8400   11.8160 C.3    53  VAL53       0.0023
     24  CG2       12.4640   56.2770   10.1980 C.3    53  VAL53       0.0023
     25  N         15.9460   53.2110   10.6390 N.am   54  PHE54      -0.1960
     26  CA        16.7260   52.3700   11.5290 C.3    54  PHE54       0.1771
     27  C         17.2250   53.2860   12.6380 C.2    54  PHE54       0.2620
     28  O         18.0040   54.2480   12.3630 O.2    54  PHE54      -0.2715
     29  CB        17.8890   51.6830   10.8100 C.3    54  PHE54       0.0574
     30  CG        18.7060   50.8150   11.6980 C.ar   54  PHE54      -0.0200
     31  CD1       18.2370   49.5340   12.0860 C.ar   54  PHE54      -0.0042
     32  CD2       19.9400   51.2890   12.2090 C.ar   54  PHE54      -0.0042
     33  CE1       18.9660   48.7380   12.9450 C.ar   54  PHE54      -0.0003
     34  CE2       20.7100   50.4690   13.0510 C.ar   54  PHE54      -0.0003
     35  CZ        20.2300   49.1960   13.4210 C.ar   54  PHE54      -0.0000
     36  N         16.7990   52.9890   13.8730 N.am   55  SER55      -0.1936
     37  CA        17.1520   53.8260   15.0470 C.3    55  SER55       0.2055
     38  C         18.5860   53.7770   15.5890 C.2    55  SER55       0.2643
     39  O         18.9720   54.7290   16.2440 O.2    55  SER55      -0.2714
     40  CB        16.2130   53.5640   16.2240 C.3    55  SER55       0.2130
     41  OG        14.9000   53.9450   15.8950 O.3    55  SER55      -0.2179
     42  N         19.3330   52.6800   15.3790 N.am   56  ASN56      -0.1957
     43  CA        20.7200   52.5320   15.8930 C.3    56  ASN56       0.1819
     44  C         20.8020   52.7020   17.4380 C.2    56  ASN56       0.2621
     45  O         21.6820   53.4020   17.9760 O.2    56  ASN56      -0.2715
     46  CB        21.6410   53.5180   15.1290 C.3    56  ASN56       0.1195
     47  CG        23.1240   53.2700   15.3580 C.2    56  ASN56       0.2630
     48  OD1       23.6060   52.1350   15.4610 O.2    56  ASN56      -0.2716
     49  ND2       23.8580   54.3570   15.4270 N.am   56  ASN56      -0.0877
     50  N         19.8420   52.0630   18.1170 N.am   57  ARG57      -0.1963
     51  CA        19.6400   52.0630   19.5830 C.3    57  ARG57       0.1729
     52  C         20.8420   51.4780   20.3310 C.2    57  ARG57       0.2616
     53  O         21.2220   51.9720   21.4330 O.2    57  ARG57      -0.2715
     54  CB        18.3930   51.2380   19.9600 C.3    57  ARG57       0.0348
     55  CG        17.0760   51.9500   19.6570 C.3    57  ARG57       0.0492
     56  CD        15.8410   51.3120   20.2390 C.3    57  ARG57       0.2205
     57  NE        15.7120   49.9260   19.7940 N.pl3  57  ARG57      -0.0865
     58  CZ        14.8770   49.4930   18.8550 C.cat  57  ARG57       0.5346
     59  NH1       14.0100   50.3060   18.2330 N.pl3  57  ARG57       0.1354
     60  NH2       14.9130   48.2080   18.5450 N.pl3  57  ARG57       0.1354
     61  N         21.4430   50.4600   19.7190 N.am   58  GLU58      -0.1977
     62  CA        22.6140   49.7930   20.2760 C.3    58  GLU58       0.1602
     63  C         23.9360   50.5470   20.0040 C.2    58  GLU58       0.2287
     64  O         24.9620   50.1320   20.5130 O.2    58  GLU58      -0.2864
     65  CB        22.7060   48.3200   19.8470 C.3    58  GLU58       0.0415
     66  CG        21.4540   47.4680   20.0920 C.3    58  GLU58       0.1163
     67  CD        20.3610   47.5870   19.0130 C.2    58  GLU58       0.3649
     68  OE1       19.4240   46.7900   19.1040 O.co2  58  GLU58      -0.2457
     69  OE2       20.4220   48.4450   18.0900 O.co2  58  GLU58      -0.2457
     70  N         25.9300   50.6810   17.4360 N.3    60  ARG60      -0.1245
     71  CA        26.9080   49.8970   16.6490 C.3    60  ARG60       0.1563
     72  C         27.3530   50.5700   15.3640 C.2    60  ARG60       0.2260
     73  O         28.2670   50.1090   14.7090 O.2    60  ARG60      -0.2867
     74  CB        26.3400   48.5330   16.2830 C.3    60  ARG60       0.0307
     75  CG        25.9890   47.6820   17.4530 C.3    60  ARG60       0.0489
     76  CD        25.7410   46.2690   17.0900 C.3    60  ARG60       0.2205
     77  NE        25.4230   45.4890   18.2880 N.pl3  60  ARG60      -0.0865
     78  CZ        24.1820   45.1120   18.6510 C.cat  60  ARG60       0.5346
     79  NH1       23.1240   45.4220   17.9070 N.pl3  60  ARG60       0.1354
     80  NH2       24.0010   44.4050   19.7650 N.pl3  60  ARG60       0.1354
     81  N         16.8760   51.3330    6.5300 N.3    71  GLU71      -0.1245
     82  CA        17.2550   49.9800    6.2080 C.3    71  GLU71       0.1567
     83  C         16.4790   49.3840    5.0260 C.2    71  GLU71       0.2260
     84  O         15.4090   49.8900    4.6540 O.2    71  GLU71      -0.2867
     85  CB        17.1880   49.0980    7.4670 C.3    71  GLU71       0.0388
     86  CG        15.8560   49.0390    8.2420 C.3    71  GLU71       0.1160
     87  CD        14.7220   48.2990    7.5460 C.2    71  GLU71       0.3649
     88  OE1       13.5850   48.7680    7.6770 O.co2  71  GLU71      -0.2457
     89  OE2       14.9390   47.2470    6.8810 O.co2  71  GLU71      -0.2457
     90  N         10.9420   36.4670    5.5580 N.3    81  ARG81      -0.1245
     91  CA        12.0560   37.3780    5.4290 C.3    81  ARG81       0.1563
     92  C         13.3370   36.7850    6.0560 C.2    81  ARG81       0.2260
     93  O         13.2690   36.0200    7.0490 O.2    81  ARG81      -0.2867
     94  CB        11.7010   38.6460    6.1280 C.3    81  ARG81       0.0307
     95  CG        10.7370   39.5460    5.3400 C.3    81  ARG81       0.0489
     96  CD        10.2100   40.6730    6.1740 C.3    81  ARG81       0.2205
     97  NE        11.2380   41.6990    6.3510 N.pl3  81  ARG81      -0.0865
     98  CZ        11.3830   42.4740    7.4130 C.cat  81  ARG81       0.5346
     99  NH1       10.5360   42.4320    8.4310 N.pl3  81  ARG81       0.1354
    100  NH2       12.3590   43.3730    7.4170 N.pl3  81  ARG81       0.1354
    101  N         20.3980   42.7020    5.5530 N.3    85  ARG85      -0.1245
    102  CA        19.9860   44.0930    5.4690 C.3    85  ARG85       0.1563
    103  C         21.1280   44.9960    5.0800 C.2    85  ARG85       0.2260
    104  O         22.2780   44.7190    5.4730 O.2    85  ARG85      -0.2867
    105  CB        19.4500   44.6270    6.8320 C.3    85  ARG85       0.0307
    106  CG        18.4330   43.7060    7.5690 C.3    85  ARG85       0.0489
    107  CD        17.0260   43.9400    7.0160 C.3    85  ARG85       0.2205
    108  NE        16.0040   43.2020    7.7540 N.pl3  85  ARG85      -0.0865
    109  CZ        15.6470   41.9320    7.4980 C.cat  85  ARG85       0.5346
    110  NH1       16.2010   41.2530    6.5000 N.pl3  85  ARG85       0.1354
    111  NH2       14.7130   41.3480    8.2280 N.pl3  85  ARG85       0.1354
    112  N         21.0060   40.2360   11.0260 N.3   100  HIS100     -0.1226
    113  CA        19.9430   41.0770   11.5470 C.3   100  HIS100      0.1752
    114  C         20.4450   42.1050   12.5900 C.2   100  HIS100      0.2596
    115  O         19.9580   42.1800   13.7360 O.2   100  HIS100     -0.2718
    116  CB        18.7930   40.1830   12.0800 C.3   100  HIS100      0.0759
    117  CG        17.4780   40.8780   12.2260 C.ar  100  HIS100      0.0818
    118  ND1       16.9540   41.2170   13.4570 N.ar  100  HIS100     -0.2268
    119  CD2       16.5790   41.2980   11.3010 C.ar  100  HIS100      0.1154
    120  CE1       15.7990   41.8420   13.2830 C.ar  100  HIS100      0.1986
    121  NE2       15.5440   41.8920   11.9840 N.ar  100  HIS100     -0.2212
    122  N         21.4100   42.9160   12.1610 N.am  101  TYR101     -0.1976
    123  CA        21.9360   44.0140   12.9590 C.3   101  TYR101      0.1639
    124  C         22.7680   43.6160   14.2120 C.2   101  TYR101      0.2290
    125  O         22.9820   44.4760   15.0930 O.2   101  TYR101     -0.2864
    126  CB        20.8200   45.0470   13.3520 C.3   101  TYR101      0.0560
    127  CG        19.7210   45.2970   12.3390 C.ar  101  TYR101     -0.0198
    128  CD1       18.3920   44.8360   12.5770 C.ar  101  TYR101     -0.0009
    129  CD2       19.9890   45.9460   11.1340 C.ar  101  TYR101     -0.0009
    130  CE1       17.3620   45.0420   11.6300 C.ar  101  TYR101      0.0417
    131  CE2       18.9570   46.1790   10.2100 C.ar  101  TYR101      0.0417
    132  CZ        17.6630   45.7230   10.4580 C.ar  101  TYR101      0.1957
    133  OH        16.6800   45.9660    9.5400 O.3   101  TYR101     -0.2866
@<TRIPOS>BOND
     1    84    83    2
     2    83    82    1
     3   103   102    1
     4   103   104    2
     5     1     2    1
     6    95    94    1
     7    95    96    1
     8    91    90    1
     9    91    92    1
    10    91    94    1
    11   102   101    1
    12   102   105    1
    13    10    11    1
    14     4     3    2
    15     3     2    1
    16     2     5    1
    17    92    93    2
    18    96    97    1
    19    82    81    1
    20    82    85    1
    21    17    15   ar
    22    97    98    2
    23   110   109    1
    24   105   106    1
    25    89    87   ar
    26    11    14    1
    27    11    12    1
    28    15    16   ar
    29    15    14    1
    30   107   106    1
    31   107   108    1
    32     5     6    1
    33    98   100    1
    34    98    99    1
    35    85    86    1
    36   109   108    2
    37   109   111    1
    38     6     7    1
    39    87    88   ar
    40    87    86    1
    41    13    12    2
    42    12    18   am
    43     8     7    1
    44     8     9    1
    45    18    19    1
    46   133   132    1
    47    19    20    1
    48    19    22    1
    49    24    22    1
    50   131   132   ar
    51   131   129   ar
    52   132   130   ar
    53    20    25   am
    54    20    21    2
    55    25    26    1
    56    29    26    1
    57    29    30    1
    58    22    23    1
    59   112   113    1
    60   129   127   ar
    61   119   121   ar
    62   119   117   ar
    63    26    27    1
    64   113   116    1
    65   113   114    1
    66   130   128   ar
    67    30    31   ar
    68    30    32   ar
    69   121   120   ar
    70   116   117    1
    71    31    33   ar
    72   122   114   am
    73   122   123    1
    74    32    34   ar
    75   117   118   ar
    76   127   128   ar
    77   127   126    1
    78    28    27    2
    79   114   115    2
    80    27    36   am
    81    33    35   ar
    82   123   126    1
    83   123   124    1
    84    34    35   ar
    85   120   118   ar
    86    36    37    1
    87   124   125    2
    88    73    72    2
    89    37    38    1
    90    37    40    1
    91    46    47    1
    92    46    43    1
    93    47    49   am
    94    47    48    2
    95    72    71    1
    96    42    38   am
    97    42    43    1
    98    38    39    2
    99    43    44    1
   100    41    40    1
   101    74    71    1
   102    74    75    1
   103    71    70    1
   104    76    75    1
   105    76    77    1
   106    44    45    2
   107    44    50   am
   108    79    78    1
   109    69    67   ar
   110    50    51    1
   111    59    58    1
   112    77    78    2
   113    60    58    1
   114    78    80    1
   115    58    57    2
   116    67    68   ar
   117    67    66    1
   118    51    54    1
   119    51    52    1
   120    55    54    1
   121    55    56    1
   122    61    62    1
   123    61    52   am
   124    57    56    1
   125    65    66    1
   126    65    62    1
   127    63    62    1
   128    63    64    2
   129    52    53    2
