@<TRIPOS>MOLECULE
tmp/1gp4A00.pdb
 128 119 0 0 0
SMALL
GASTEIGER

@<TRIPOS>ATOM
      1  N         12.3560   31.2550    8.6830 N.3   209  LYS209     -0.1245
      2  CA        12.2570   29.8310    8.9300 C.3   209  LYS209      0.1561
      3  C         12.7630   29.5310   10.3210 C.2   209  LYS209      0.2260
      4  O         13.9550   29.6750   10.6100 O.2   209  LYS209     -0.2867
      5  CB        13.0760   29.0450    7.9110 C.3   209  LYS209      0.0271
      6  CG        12.8290   27.5480    7.9390 C.3   209  LYS209      0.0035
      7  CD        13.4780   26.8820    6.7270 C.3   209  LYS209      0.0206
      8  CE        13.1250   25.4030    6.6230 C.3   209  LYS209      0.1093
      9  NZ        13.9290   24.5860    7.5620 N.3   209  LYS209     -0.1314
     10  N         13.7310   26.8950   12.8460 N.3   211  ASN211     -0.1240
     11  CA        14.1090   25.4860   12.8330 C.3   211  ASN211      0.1653
     12  C         14.0760   24.9310   14.2490 C.2   211  ASN211      0.2266
     13  O         14.7420   25.4530   15.1440 O.2   211  ASN211     -0.2867
     14  CB        15.5050   25.3330   12.2360 C.3   211  ASN211      0.1155
     15  CG        15.5830   25.8550   10.8200 C.2   211  ASN211      0.2627
     16  OD1       14.9730   25.2950    9.9100 O.2   211  ASN211     -0.2716
     17  ND2       16.3240   26.9410   10.6250 N.am  211  ASN211     -0.0877
     18  N         14.8280   21.6950   16.5790 N.3   213  TYR213     -0.1241
     19  CA        15.5200   20.4130   16.6720 C.3   213  TYR213      0.1605
     20  C         15.2720   19.7570   18.0220 C.2   213  TYR213      0.2264
     21  O         15.9180   20.0940   19.0170 O.2   213  TYR213     -0.2867
     22  CB        17.0280   20.5950   16.4750 C.3   213  TYR213      0.0534
     23  CG        17.3840   21.3920   15.2440 C.ar  213  TYR213     -0.0201
     24  CD1       17.5960   22.7690   15.3200 C.ar  213  TYR213     -0.0009
     25  CD2       17.4680   20.7780   13.9940 C.ar  213  TYR213     -0.0009
     26  CE1       17.8820   23.5180   14.1770 C.ar  213  TYR213      0.0417
     27  CE2       17.7530   21.5180   12.8410 C.ar  213  TYR213      0.0417
     28  CZ        17.9580   22.8840   12.9410 C.ar  213  TYR213      0.1957
     29  OH        18.2400   23.6160   11.8060 O.3   213  TYR213     -0.2866
     30  N         20.0840   19.2640    9.9800 N.3   225  VAL225     -0.1245
     31  CA        20.0180   19.8190    8.6310 C.3   225  VAL225      0.1561
     32  C         21.1140   19.1320    7.8100 C.2   225  VAL225      0.2260
     33  O         22.2530   19.0210    8.2610 O.2   225  VAL225     -0.2867
     34  CB        20.2860   21.3350    8.6200 C.3   225  VAL225      0.0252
     35  CG1       19.9780   21.9030    7.2440 C.3   225  VAL225      0.0019
     36  CG2       19.4490   22.0200    9.6590 C.3   225  VAL225      0.0019
     37  N         24.5180   21.3550    2.8700 N.3   228  HIS228     -0.1241
     38  CA        23.9940   22.1130    1.7360 C.3   228  HIS228      0.1621
     39  C         24.4910   23.5570    1.7620 C.2   228  HIS228      0.2264
     40  O         25.1390   23.9830    2.7160 O.2   228  HIS228     -0.2867
     41  CB        22.4720   22.1590    1.8270 C.3   228  HIS228      0.0745
     42  CG        21.9820   23.0380    2.9360 C.ar  228  HIS228      0.0817
     43  ND1       22.2610   22.7840    4.2630 N.ar  228  HIS228     -0.2268
     44  CD2       21.3220   24.2220    2.9110 C.ar  228  HIS228      0.1154
     45  CE1       21.7980   23.7730    5.0060 C.ar  228  HIS228      0.1986
     46  NE2       21.2250   24.6590    4.2110 N.ar  228  HIS228     -0.2212
     47  N         23.1260   27.6880    1.0570 N.3   230  ASP230     -0.1239
     48  CA        21.9060   28.4880    0.9520 C.3   230  ASP230      0.1674
     49  C         21.8200   29.0460   -0.4550 C.2   230  ASP230      0.2266
     50  O         22.8410   29.4120   -1.0290 O.2   230  ASP230     -0.2867
     51  CB        21.9300   29.6560    1.9470 C.3   230  ASP230      0.1410
     52  CG        21.7580   29.2020    3.3750 C.2   230  ASP230      0.3668
     53  OD1       21.6340   27.9800    3.5800 O.co2 230  ASP230     -0.2456
     54  OD2       21.7470   30.0550    4.2860 O.co2 230  ASP230     -0.2456
     55  N         20.9930   34.4870   10.7140 N.3   237  ILE237     -0.1245
     56  CA        20.4810   33.4950   11.6440 C.3   237  ILE237      0.1561
     57  C         20.7090   33.7820   13.1200 C.2   237  ILE237      0.2260
     58  O         21.7670   34.2750   13.5210 O.2   237  ILE237     -0.2867
     59  CB        21.1100   32.1240   11.3400 C.3   237  ILE237      0.0252
     60  CG1       20.9350   31.7940    9.8590 C.3   237  ILE237      0.0019
     61  CG2       20.4800   31.0470   12.2110 C.3   237  ILE237      0.0019
     62  CD1       22.0430   30.9480    9.3050 C.3   237  ILE237      0.0001
     63  N         25.4380   24.2760   14.3750 N.3   244  LEU244     -0.1245
     64  CA        25.9030   24.6780   13.0530 C.3   244  LEU244      0.1561
     65  C         27.3540   24.2740   12.8240 C.2   244  LEU244      0.2260
     66  O         28.2240   24.5150   13.6660 O.2   244  LEU244     -0.2867
     67  CB        25.7860   26.1960   12.8680 C.3   244  LEU244      0.0270
     68  CG        26.3910   26.7770   11.5760 C.3   244  LEU244      0.0019
     69  CD1       25.6010   26.2860   10.3690 C.3   244  LEU244      0.0001
     70  CD2       26.3590   28.2980   11.6200 C.3   244  LEU244      0.0001
     71  N         27.2300   23.7550    4.6320 N.3   282  HIS282     -0.1226
     72  CA        27.0970   23.6590    6.0700 C.3   282  HIS282      0.1752
     73  C         26.0020   22.6740    6.4210 C.2   282  HIS282      0.2596
     74  O         25.2350   22.2470    5.5560 O.2   282  HIS282     -0.2718
     75  CB        26.8080   25.0270    6.6940 C.3   282  HIS282      0.0759
     76  CG        25.5960   25.7070    6.1450 C.ar  282  HIS282      0.0818
     77  ND1       25.5700   26.2880    4.8950 N.ar  282  HIS282     -0.2268
     78  CD2       24.3760   25.9270    6.6890 C.ar  282  HIS282      0.1154
     79  CE1       24.3860   26.8400    4.6950 C.ar  282  HIS282      0.1986
     80  NE2       23.6450   26.6350    5.7690 N.ar  282  HIS282     -0.2212
     81  N         25.9430   22.3040    7.6930 N.am  283  ARG283     -0.1966
     82  CA        24.9540   21.3460    8.1510 C.3   283  ARG283      0.1729
     83  C         24.6490   21.6270    9.6100 C.2   283  ARG283      0.2616
     84  O         25.2710   22.4960   10.2300 O.2   283  ARG283     -0.2715
     85  CB        25.4970   19.9250    7.9920 C.3   283  ARG283      0.0348
     86  CG        26.6440   19.5890    8.9510 C.3   283  ARG283      0.0492
     87  CD        27.2500   18.2150    8.6670 C.3   283  ARG283      0.2205
     88  NE        28.2480   17.8570    9.6790 N.pl3 283  ARG283     -0.0865
     89  CZ        29.0340   16.7820    9.6260 C.cat 283  ARG283      0.5346
     90  NH1       29.9070   16.5450   10.6030 N.pl3 283  ARG283      0.1354
     91  NH2       28.9550   15.9500    8.5940 N.pl3 283  ARG283      0.1354
     92  N         23.6910   20.8910   10.1590 N.am  284  GLY284     -0.1955
     93  CA        23.3280   21.0970   11.5470 C.3   284  GLY284      0.1869
     94  C         23.2500   19.7970   12.3180 C.2   284  GLY284      0.2309
     95  O         22.6450   18.8310   11.8600 O.2   284  GLY284     -0.2863
     96  N         17.3900   22.4250   20.3030 N.3   292  ARG292     -0.1245
     97  CA        18.0390   23.5460   19.6400 C.3   292  ARG292      0.1563
     98  C         17.0240   24.2340   18.7410 C.2   292  ARG292      0.2260
     99  O         16.1710   23.5810   18.1440 O.2   292  ARG292     -0.2867
    100  CB        19.2350   23.0670   18.8080 C.3   292  ARG292      0.0307
    101  CG        19.9270   24.1830   18.0280 C.3   292  ARG292      0.0489
    102  CD        21.2510   23.7270   17.4230 C.3   292  ARG292      0.2205
    103  NE        21.9860   24.8550   16.8550 N.pl3 292  ARG292     -0.0865
    104  CZ        21.8110   25.3160   15.6220 C.cat 292  ARG292      0.5346
    105  NH1       20.9350   24.7390   14.8160 N.pl3 292  ARG292      0.1354
    106  NH2       22.4950   26.3680   15.2010 N.pl3 292  ARG292      0.1354
    107  N         16.7140   27.5800   15.8260 N.3   294  SER294     -0.1217
    108  CA        17.3920   28.6260   15.0770 C.3   294  SER294      0.1889
    109  C         16.3290   29.3790   14.2960 C.2   294  SER294      0.2288
    110  O         15.2820   28.8220   13.9700 O.2   294  SER294     -0.2866
    111  CB        18.4340   28.0420   14.1210 C.3   294  SER294      0.2089
    112  OG        17.8290   27.2590   13.1050 O.3   294  SER294     -0.2183
    113  N         16.2240   31.4610   10.9330 N.3   296  ALA296     -0.1245
    114  CA        16.9330   31.8480    9.7290 C.3   296  ALA296      0.1562
    115  C         16.0480   32.6930    8.8320 C.2   296  ALA296      0.2260
    116  O         14.9190   32.3160    8.5240 O.2   296  ALA296     -0.2867
    117  CB        17.4060   30.5960    8.9800 C.3   296  ALA296      0.0290
    118  N         15.9890   34.2530    5.1640 N.3   298  PHE298     -0.1241
    119  CA        16.6410   34.2430    3.8660 C.3   298  PHE298      0.1605
    120  C         16.2210   35.4530    3.0520 C.2   298  PHE298      0.2264
    121  O         15.0270   35.7170    2.8860 O.2   298  PHE298     -0.2867
    122  CB        16.2820   32.9660    3.0890 C.3   298  PHE298      0.0534
    123  CG        16.4710   31.6970    3.8790 C.ar  298  PHE298     -0.0203
    124  CD1       15.4240   31.1680    4.6310 C.ar  298  PHE298     -0.0042
    125  CD2       17.7000   31.0510    3.8990 C.ar  298  PHE298     -0.0042
    126  CE1       15.6000   30.0140    5.3940 C.ar  298  PHE298     -0.0003
    127  CE2       17.8930   29.8940    4.6590 C.ar  298  PHE298     -0.0003
    128  CZ        16.8370   29.3740    5.4110 C.ar  298  PHE298     -0.0000
@<TRIPOS>BOND
     1    50    49    2
     2    49    48    1
     3    48    47    1
     4    48    51    1
     5    38    39    1
     6    38    41    1
     7    38    37    1
     8    39    40    2
     9    41    42    1
    10    51    52    1
    11   121   120    2
    12    44    42   ar
    13    44    46   ar
    14    42    43   ar
    15   120   119    1
    16   122   119    1
    17   122   123    1
    18    52    53   ar
    19    52    54   ar
    20   119   118    1
    21   123   125   ar
    22   123   124   ar
    23   125   127   ar
    24    46    45   ar
    25    43    45   ar
    26   124   126   ar
    27    71    72    1
    28   127   128   ar
    29    79    77   ar
    30    79    80   ar
    31    77    76   ar
    32   126   128   ar
    33    74    73    2
    34    80    78   ar
    35    72    73    1
    36    72    75    1
    37    76    78   ar
    38    76    75    1
    39    73    81   am
    40     8     7    1
    41     8     9    1
    42     7     6    1
    43    35    34    1
    44    81    82    1
    45    32    33    2
    46    32    31    1
    47     5     6    1
    48     5     2    1
    49    85    82    1
    50    85    86    1
    51    82    83    1
    52   116   115    2
    53    91    89    1
    54    34    31    1
    55    34    36    1
    56    31    30    1
    57    87    86    1
    58    87    88    1
    59     1     2    1
    60   115   114    1
    61     2     3    1
    62   117   114    1
    63    62    60    1
    64    83    92   am
    65    83    84    2
    66    89    88    2
    67    89    90    1
    68   114   113    1
    69    60    59    1
    70    16    15    2
    71    92    93    1
    72     3     4    2
    73    69    68    1
    74    17    15   am
    75    55    56    1
    76    15    14    1
    77    59    56    1
    78    59    61    1
    79    93    94    1
    80    68    70    1
    81    68    67    1
    82    56    57    1
    83    29    28    1
    84    95    94    2
    85    14    11    1
    86    65    64    1
    87    65    66    2
    88    11    10    1
    89    11    12    1
    90    27    28   ar
    91    27    25   ar
    92    67    64    1
    93    28    26   ar
    94    64    63    1
    95   112   111    1
    96    57    58    2
    97   110   109    2
    98    25    23   ar
    99   111   108    1
   100    26    24   ar
   101    12    13    2
   102   109   108    1
   103   105   104    1
   104   108   107    1
   105   106   104    1
   106    23    24   ar
   107    23    22    1
   108   104   103    2
   109    22    19    1
   110    18    19    1
   111    19    20    1
   112   103   102    1
   113   102   101    1
   114    20    21    2
   115   101   100    1
   116    99    98    2
   117    98    97    1
   118   100    97    1
   119    97    96    1
