@<TRIPOS>MOLECULE
tmp/1gp6A00.pdb
 138 129 0 0 0
SMALL
GASTEIGER

@<TRIPOS>ATOM
      1  N         12.5790   31.0940    8.5660 N.3   212  LYS212     -0.1245
      2  CA        12.4690   29.6640    8.8210 C.3   212  LYS212      0.1561
      3  C         12.9070   29.3990   10.2560 C.2   212  LYS212      0.2260
      4  O         14.0650   29.6230   10.6110 O.2   212  LYS212     -0.2867
      5  CB        13.3370   28.8700    7.8460 C.3   212  LYS212      0.0271
      6  CG        13.0750   27.3580    7.9980 C.3   212  LYS212      0.0035
      7  CD        13.9990   26.5360    7.1140 C.3   212  LYS212      0.0206
      8  CE        13.6650   25.0530    7.2680 C.3   212  LYS212      0.1093
      9  NZ        14.7930   24.1790    6.7710 N.3   212  LYS212     -0.1314
     10  N         13.8300   26.7840   12.8690 N.3   214  ASN214     -0.1240
     11  CA        14.2480   25.3840   12.8660 C.3   214  ASN214      0.1653
     12  C         14.1580   24.8520   14.2910 C.2   214  ASN214      0.2266
     13  O         14.7830   25.3900   15.1770 O.2   214  ASN214     -0.2867
     14  CB        15.7050   25.2820   12.3710 C.3   214  ASN214      0.1155
     15  CG        15.8880   25.8720   10.9720 C.2   214  ASN214      0.2627
     16  OD1       15.3160   25.3700   10.0250 O.2   214  ASN214     -0.2716
     17  ND2       16.6760   26.9400   10.8520 N.am  214  ASN214     -0.0877
     18  N         14.8160   21.5410   16.6560 N.3   216  TYR216     -0.1241
     19  CA        15.5340   20.2570   16.6750 C.3   216  TYR216      0.1605
     20  C         15.2500   19.5910   17.9920 C.2   216  TYR216      0.2264
     21  O         15.8500   19.9510   18.9880 O.2   216  TYR216     -0.2867
     22  CB        17.0460   20.4880   16.5740 C.3   216  TYR216      0.0534
     23  CG        17.4670   21.3030   15.3490 C.ar  216  TYR216     -0.0201
     24  CD1       17.6790   22.6870   15.4340 C.ar  216  TYR216     -0.0009
     25  CD2       17.5940   20.6920   14.1090 C.ar  216  TYR216     -0.0009
     26  CE1       18.0050   23.4410   14.2990 C.ar  216  TYR216      0.0417
     27  CE2       17.9250   21.4320   12.9670 C.ar  216  TYR216      0.0417
     28  CZ        18.1290   22.7950   13.0660 C.ar  216  TYR216      0.1957
     29  OH        18.5080   23.4960   11.9390 O.3   216  TYR216     -0.2866
     30  N         20.0780   19.0730   10.0760 N.3   228  VAL228     -0.1245
     31  CA        19.8990   19.5400    8.6860 C.3   228  VAL228      0.1561
     32  C         21.1070   18.9700    7.9310 C.2   228  VAL228      0.2260
     33  O         22.2560   18.9700    8.4200 O.2   228  VAL228     -0.2867
     34  CB        19.8130   21.0830    8.5410 C.3   228  VAL228      0.0252
     35  CG1       21.0470   21.7230    9.0280 C.3   228  VAL228      0.0019
     36  CG2       19.5730   21.4660    7.0620 C.3   228  VAL228      0.0019
     37  N         24.6500   21.1820    3.0840 N.3   231  HIS231     -0.1241
     38  CA        24.0790   21.9450    1.9710 C.3   231  HIS231      0.1621
     39  C         24.6730   23.3300    1.9080 C.2   231  HIS231      0.2264
     40  O         25.3830   23.7510    2.8260 O.2   231  HIS231     -0.2867
     41  CB        22.5620   22.1290    2.1980 C.3   231  HIS231      0.0745
     42  CG        22.2300   23.0450    3.3500 C.ar  231  HIS231      0.0817
     43  ND1       22.3020   22.6440    4.6680 N.ar  231  HIS231     -0.2268
     44  CD2       21.9180   24.3650    3.3810 C.ar  231  HIS231      0.1154
     45  CE1       22.0610   23.6730    5.4630 C.ar  231  HIS231      0.1986
     46  NE2       21.8230   24.7320    4.7040 N.ar  231  HIS231     -0.2212
     47  N         23.3520   27.4390    1.2100 N.3   233  ASP233     -0.1239
     48  CA        22.1310   28.2470    1.1410 C.3   233  ASP233      0.1674
     49  C         21.9680   28.8400   -0.2630 C.2   233  ASP233      0.2266
     50  O         22.9370   29.3160   -0.8480 O.2   233  ASP233     -0.2867
     51  CB        22.2020   29.4110    2.1280 C.3   233  ASP233      0.1410
     52  CG        21.9340   28.9970    3.5600 C.2   233  ASP233      0.3668
     53  OD1       21.7640   27.7870    3.8220 O.co2 233  ASP233     -0.2456
     54  OD2       21.8540   29.9090    4.4140 O.co2 233  ASP233     -0.2456
     55  N         21.0830   34.4000   10.7780 N.3   240  ILE240     -0.1245
     56  CA        20.5230   33.4070   11.6980 C.3   240  ILE240      0.1561
     57  C         20.7750   33.7130   13.1560 C.2   240  ILE240      0.2260
     58  O         21.8730   34.1570   13.5180 O.2   240  ILE240     -0.2867
     59  CB        21.1380   31.9950   11.4320 C.3   240  ILE240      0.0252
     60  CG1       21.0330   31.6320    9.9550 C.3   240  ILE240      0.0019
     61  CG2       20.3360   30.8880   12.2180 C.3   240  ILE240      0.0019
     62  CD1       22.3240   31.7190    9.1980 C.3   240  ILE240      0.0001
     63  N         25.4680   24.1500   14.6320 N.3   248  LEU248     -0.1245
     64  CA        25.9410   24.5380   13.3090 C.3   248  LEU248      0.1561
     65  C         27.4090   24.1220   13.0910 C.2   248  LEU248      0.2260
     66  O         28.2510   24.3570   13.9610 O.2   248  LEU248     -0.2867
     67  CB        25.8300   26.0570   13.1200 C.3   248  LEU248      0.0270
     68  CG        26.4300   26.5990   11.8090 C.3   248  LEU248      0.0019
     69  CD1       25.6240   26.1210   10.5820 C.3   248  LEU248      0.0001
     70  CD2       26.4440   28.1270   11.8400 C.3   248  LEU248      0.0001
     71  N         25.5490   34.2360    6.4390 N.3   269  HIS269     -0.1241
     72  CA        26.0770   33.4170    5.3620 C.3   269  HIS269      0.1621
     73  C         25.9540   34.1820    4.0670 C.2   269  HIS269      0.2264
     74  O         24.9310   34.8410    3.8210 O.2   269  HIS269     -0.2867
     75  CB        25.2210   32.1640    5.1020 C.3   269  HIS269      0.0745
     76  CG        25.5130   31.0160    6.0070 C.ar  269  HIS269      0.0817
     77  ND1       26.4680   30.0620    5.7210 N.ar  269  HIS269     -0.2268
     78  CD2       24.9330   30.6380    7.1710 C.ar  269  HIS269      0.1154
     79  CE1       26.4590   29.1440    6.6750 C.ar  269  HIS269      0.1986
     80  NE2       25.5340   29.4690    7.5610 N.ar  269  HIS269     -0.2212
     81  N         27.4080   23.5870    4.9050 N.3   287  HIS287     -0.1226
     82  CA        27.2450   23.5620    6.3350 C.3   287  HIS287      0.1752
     83  C         26.1470   22.5660    6.6670 C.2   287  HIS287      0.2596
     84  O         25.4470   22.0940    5.7790 O.2   287  HIS287     -0.2718
     85  CB        26.9300   24.9750    6.8810 C.3   287  HIS287      0.0759
     86  CG        25.7440   25.6500    6.2420 C.ar  287  HIS287      0.0818
     87  ND1       25.7930   26.2090    4.9850 N.ar  287  HIS287     -0.2268
     88  CD2       24.5140   25.9200    6.7270 C.ar  287  HIS287      0.1154
     89  CE1       24.6390   26.8020    4.7250 C.ar  287  HIS287      0.1986
     90  NE2       23.8450   26.6400    5.7670 N.ar  287  HIS287     -0.2212
     91  N         26.0320   22.2230    7.9450 N.am  288  ARG288     -0.1966
     92  CA        25.0360   21.2570    8.3690 C.3   288  ARG288      0.1729
     93  C         24.7330   21.5530    9.8360 C.2   288  ARG288      0.2616
     94  O         25.3240   22.4590   10.4120 O.2   288  ARG288     -0.2715
     95  CB        25.5900   19.8310    8.2070 C.3   288  ARG288      0.0348
     96  CG        26.6940   19.4990    9.1890 C.3   288  ARG288      0.0492
     97  CD        27.2980   18.1120    8.9460 C.3   288  ARG288      0.2205
     98  NE        28.2190   17.7750   10.0270 N.pl3 288  ARG288     -0.0865
     99  CZ        29.0240   16.7070   10.0500 C.cat 288  ARG288      0.5346
    100  NH1       29.8210   16.5000   11.0910 N.pl3 288  ARG288      0.1354
    101  NH2       29.0260   15.8460    9.0560 N.pl3 288  ARG288      0.1354
    102  N         23.8100   20.7930   10.4150 N.am  289  GLY289     -0.1955
    103  CA        23.4720   20.9940   11.8120 C.3   289  GLY289      0.1869
    104  C         23.3340   19.6720   12.5340 C.2   289  GLY289      0.2309
    105  O         22.6830   18.7500   12.0400 O.2   289  GLY289     -0.2863
    106  N         17.3990   22.2440   20.3500 N.3   297  ARG297     -0.1245
    107  CA        18.0900   23.3720   19.7230 C.3   297  ARG297      0.1563
    108  C         17.0610   24.0680   18.8190 C.2   297  ARG297      0.2260
    109  O         16.1800   23.4050   18.2510 O.2   297  ARG297     -0.2867
    110  CB        19.3060   22.8530   18.9110 C.3   297  ARG297      0.0307
    111  CG        20.0560   23.9340   18.1370 C.3   297  ARG297      0.0489
    112  CD        21.4170   23.4570   17.5330 C.3   297  ARG297      0.2205
    113  NE        22.0680   24.6590   17.0110 N.pl3 297  ARG297     -0.0865
    114  CZ        21.8480   25.1600   15.7910 C.cat 297  ARG297      0.5346
    115  NH1       21.0340   24.5430   14.9320 N.pl3 297  ARG297      0.1354
    116  NH2       22.3490   26.3400   15.4620 N.pl3 297  ARG297      0.1354
    117  N         16.7760   27.5280   15.9320 N.3   299  SER299     -0.1217
    118  CA        17.4460   28.5940   15.2020 C.3   299  SER299      0.1889
    119  C         16.3900   29.3280   14.3700 C.2   299  SER299      0.2288
    120  O         15.3120   28.7920   14.0740 O.2   299  SER299     -0.2866
    121  CB        18.5740   28.0440   14.2960 C.3   299  SER299      0.2089
    122  OG        18.0810   27.2200   13.2540 O.3   299  SER299     -0.2183
    123  N         16.3060   31.3890   10.9110 N.3   301  ALA301     -0.1245
    124  CA        17.0560   31.7930    9.7400 C.3   301  ALA301      0.1562
    125  C         16.2280   32.6870    8.8350 C.2   301  ALA301      0.2260
    126  O         15.1070   32.3220    8.4560 O.2   301  ALA301     -0.2867
    127  CB        17.5200   30.5510    8.9660 C.3   301  ALA301      0.0290
    128  N         16.2280   34.2230    5.1900 N.3   303  PHE303     -0.1241
    129  CA        16.8620   34.1390    3.8720 C.3   303  PHE303      0.1605
    130  C         16.4540   35.3050    3.0070 C.2   303  PHE303      0.2264
    131  O         15.2630   35.5630    2.8380 O.2   303  PHE303     -0.2867
    132  CB        16.4400   32.8410    3.1890 C.3   303  PHE303      0.0534
    133  CG        16.6410   31.6100    4.0400 C.ar  303  PHE303     -0.0203
    134  CD1       15.5530   30.9620    4.6090 C.ar  303  PHE303     -0.0042
    135  CD2       17.9200   31.0920    4.2300 C.ar  303  PHE303     -0.0042
    136  CE1       15.7160   29.7970    5.3710 C.ar  303  PHE303     -0.0003
    137  CE2       18.1140   29.9300    4.9770 C.ar  303  PHE303     -0.0003
    138  CZ        17.0000   29.2740    5.5570 C.ar  303  PHE303     -0.0000
@<TRIPOS>BOND
     1    50    49    2
     2    49    48    1
     3    48    47    1
     4    48    51    1
     5    39    38    1
     6    39    40    2
     7    38    41    1
     8    38    37    1
     9    51    52    1
    10    41    42    1
    11   131   130    2
    12   130   129    1
    13   132   129    1
    14   132   133    1
    15    42    44   ar
    16    42    43   ar
    17    44    46   ar
    18    52    53   ar
    19    52    54   ar
    20    74    73    2
    21   129   128    1
    22   133   135   ar
    23   133   134   ar
    24    73    72    1
    25   135   137   ar
    26   134   136   ar
    27    43    45   ar
    28    46    45   ar
    29    89    87   ar
    30    89    90   ar
    31    81    82    1
    32   137   138   ar
    33    87    86   ar
    34    75    72    1
    35    75    76    1
    36    72    71    1
    37   136   138   ar
    38    77    76   ar
    39    77    79   ar
    40    90    88   ar
    41    84    83    2
    42    76    78   ar
    43    86    88   ar
    44    86    85    1
    45    82    83    1
    46    82    85    1
    47    83    91   am
    48    79    80   ar
    49     9     8    1
    50    36    34    1
    51     7     8    1
    52     7     6    1
    53    78    80   ar
    54     5     6    1
    55     5     2    1
    56    32    33    2
    57    32    31    1
    58    91    92    1
    59    95    92    1
    60    95    96    1
    61    92    93    1
    62   126   125    2
    63    34    31    1
    64    34    35    1
    65     1     2    1
    66    31    30    1
    67     2     3    1
    68   125   124    1
    69    97    96    1
    70    97    98    1
    71   127   124    1
    72   101    99    1
    73    62    60    1
    74   124   123    1
    75    93    94    2
    76    93   102   am
    77    60    59    1
    78    16    15    2
    79    98    99    2
    80    99   100    1
    81     3     4    2
    82   102   103    1
    83    69    68    1
    84    55    56    1
    85    17    15   am
    86    15    14    1
    87    59    56    1
    88    59    61    1
    89    56    57    1
    90    68    70    1
    91    68    67    1
    92   103   104    1
    93    29    28    1
    94   105   104    2
    95    14    11    1
    96    11    10    1
    97    11    12    1
    98    27    28   ar
    99    27    25   ar
   100    28    26   ar
   101    65    64    1
   102    65    66    2
   103    67    64    1
   104    57    58    2
   105   122   121    1
   106    64    63    1
   107   120   119    2
   108    25    23   ar
   109    12    13    2
   110   121   118    1
   111    26    24   ar
   112   119   118    1
   113   115   114    1
   114   118   117    1
   115    23    24   ar
   116    23    22    1
   117   116   114    1
   118   114   113    2
   119    22    19    1
   120    18    19    1
   121    19    20    1
   122   113   112    1
   123   112   111    1
   124    20    21    2
   125   111   110    1
   126   109   108    2
   127   108   107    1
   128   110   107    1
   129   107   106    1
