@<TRIPOS>MOLECULE
tmp/1gp6A01.pdb
 102 94 0 0 0
SMALL
GASTEIGER

@<TRIPOS>ATOM
      1  N         10.5310   18.0740    6.6640 N.3   127  LYS127     -0.1245
      2  CA        10.9230   17.7470    5.2940 C.3   127  LYS127      0.1561
      3  C         10.4910   16.3430    4.9010 C.2   127  LYS127      0.2260
      4  O         10.8310   15.3750    5.5780 O.2   127  LYS127     -0.2867
      5  CB        12.4510   17.8660    5.1220 C.3   127  LYS127      0.0271
      6  CG        12.9120   17.9180    3.6280 C.3   127  LYS127      0.0035
      7  CD        14.2620   17.2430    3.3760 C.3   127  LYS127      0.0206
      8  CE        14.1860   15.7020    3.4750 C.3   127  LYS127      0.1093
      9  NZ        15.5400   15.0490    3.2940 N.3   127  LYS127     -0.1314
     10  N         12.4250   13.1790   -0.5280 N.3   130  ASN130     -0.1225
     11  CA        12.1920   13.5720   -1.9160 C.3   130  ASN130      0.1785
     12  C         13.1500   12.9740   -2.9360 C.2   130  ASN130      0.2597
     13  O         13.4200   13.5770   -3.9710 O.2   130  ASN130     -0.2718
     14  CB        12.2270   15.0910   -2.0320 C.3   130  ASN130      0.1169
     15  CG        13.6000   15.6500   -1.7410 C.2   130  ASN130      0.2627
     16  OD1       14.4630   14.9510   -1.1990 O.2   130  ASN130     -0.2716
     17  ND2       13.8150   16.9090   -2.0940 N.am  130  ASN130     -0.0877
     18  N         13.6730   11.8010   -2.6410 N.am  131  ASN131     -0.1974
     19  CA        14.5470   11.1290   -3.5770 C.3   131  ASN131      0.1688
     20  C         14.5850    9.6870   -3.1260 C.2   131  ASN131      0.2292
     21  O         14.0560    9.3420   -2.0580 O.2   131  ASN131     -0.2864
     22  CB        15.9440   11.7790   -3.6180 C.3   131  ASN131      0.1181
     23  CG        16.6900   11.6550   -2.3100 C.2   131  ASN131      0.2629
     24  OD1       16.9220   10.5620   -1.8310 O.2   131  ASN131     -0.2716
     25  ND2       17.0790   12.7830   -1.7360 N.am  131  ASN131     -0.0877
     26  N         15.6790   14.2590    8.0330 N.3   137  GLU137     -0.1245
     27  CA        16.5350   14.9850    8.9560 C.3   137  GLU137      0.1567
     28  C         15.7570   15.2160   10.2490 C.2   137  GLU137      0.2260
     29  O         14.5170   15.3070   10.2380 O.2   137  GLU137     -0.2867
     30  CB        16.9740   16.3340    8.3470 C.3   137  GLU137      0.0388
     31  CG        18.1870   16.2360    7.3710 C.3   137  GLU137      0.1160
     32  CD        17.8250   15.5680    6.0450 C.2   137  GLU137      0.3649
     33  OE1       16.8390   16.0130    5.4270 O.co2 137  GLU137     -0.2457
     34  OE2       18.5270   14.6140    5.6110 O.co2 137  GLU137     -0.2457
     35  N         14.4800   17.4100   12.3200 N.3   139  GLU139     -0.1245
     36  CA        13.9860   18.7340   12.6490 C.3   139  GLU139      0.1567
     37  C         12.5770   18.9450   12.0960 C.2   139  GLU139      0.2260
     38  O         12.1730   18.2740   11.1250 O.2   139  GLU139     -0.2867
     39  CB        14.8770   19.8290   12.0640 C.3   139  GLU139      0.0388
     40  CG        14.7040   20.0140   10.5770 C.3   139  GLU139      0.1160
     41  CD        15.1030   21.4150   10.1030 C.2   139  GLU139      0.3649
     42  OE1       15.0790   21.6680    8.8940 O.co2 139  GLU139     -0.2457
     43  OE2       15.4280   22.2600   10.9420 O.co2 139  GLU139     -0.2457
     44  N         12.5790   31.0940    8.5660 N.3   212  LYS212     -0.1245
     45  CA        12.4690   29.6640    8.8210 C.3   212  LYS212      0.1561
     46  C         12.9070   29.3990   10.2560 C.2   212  LYS212      0.2260
     47  O         14.0650   29.6230   10.6110 O.2   212  LYS212     -0.2867
     48  CB        13.3370   28.8700    7.8460 C.3   212  LYS212      0.0271
     49  CG        13.0750   27.3580    7.9980 C.3   212  LYS212      0.0035
     50  CD        13.9990   26.5360    7.1140 C.3   212  LYS212      0.0206
     51  CE        13.6650   25.0530    7.2680 C.3   212  LYS212      0.1093
     52  NZ        14.7930   24.1790    6.7710 N.3   212  LYS212     -0.1314
     53  N         20.0780   19.0730   10.0760 N.3   228  VAL228     -0.1231
     54  CA        19.8990   19.5400    8.6860 C.3   228  VAL228      0.1692
     55  C         21.1070   18.9700    7.9310 C.2   228  VAL228      0.2591
     56  O         22.2560   18.9700    8.4200 O.2   228  VAL228     -0.2718
     57  CB        19.8130   21.0830    8.5410 C.3   228  VAL228      0.0266
     58  CG1       21.0470   21.7230    9.0280 C.3   228  VAL228      0.0020
     59  CG2       19.5730   21.4660    7.0620 C.3   228  VAL228      0.0020
     60  N         20.8280   18.4460    6.7520 N.am  229  GLU229     -0.1979
     61  CA        21.8790   17.8280    5.9420 C.3   229  GLU229      0.1602
     62  C         22.9080   18.8340    5.4300 C.2   229  GLU229      0.2287
     63  O         22.6820   20.0430    5.4790 O.2   229  GLU229     -0.2864
     64  CB        21.2340   17.0820    4.7580 C.3   229  GLU229      0.0415
     65  CG        20.9720   17.9110    3.5010 C.3   229  GLU229      0.1163
     66  CD        19.7980   18.8670    3.5960 C.2   229  GLU229      0.3649
     67  OE1       19.1270   18.9550    4.6610 O.co2 229  GLU229     -0.2457
     68  OE2       19.5380   19.5410    2.5740 O.co2 229  GLU229     -0.2457
     69  N         24.6500   21.1820    3.0840 N.3   231  HIS231     -0.1226
     70  CA        24.0790   21.9450    1.9710 C.3   231  HIS231      0.1752
     71  C         24.6730   23.3300    1.9080 C.2   231  HIS231      0.2596
     72  O         25.3830   23.7510    2.8260 O.2   231  HIS231     -0.2718
     73  CB        22.5620   22.1290    2.1980 C.3   231  HIS231      0.0759
     74  CG        22.2300   23.0450    3.3500 C.ar  231  HIS231      0.0818
     75  ND1       22.3020   22.6440    4.6680 N.ar  231  HIS231     -0.2268
     76  CD2       21.9180   24.3650    3.3810 C.ar  231  HIS231      0.1154
     77  CE1       22.0610   23.6730    5.4630 C.ar  231  HIS231      0.1986
     78  NE2       21.8230   24.7320    4.7040 N.ar  231  HIS231     -0.2212
     79  N         24.3940   24.0400    0.8200 N.am  232  THR232     -0.1953
     80  CA        24.7620   25.4640    0.7770 C.3   232  THR232      0.1897
     81  C         23.4230   26.2330    0.6500 C.2   232  THR232      0.2313
     82  O         22.4580   25.7050    0.0870 O.2   232  THR232     -0.2863
     83  CB        25.6980   25.8460   -0.3860 C.3   232  THR232      0.1794
     84  OG1       25.0640   25.6010   -1.6540 O.3   232  THR232     -0.2208
     85  CG2       26.9800   25.0730   -0.2840 C.3   232  THR232      0.0378
     86  N         18.3120   20.2120   -6.6040 N.3   341  LEU341     -0.1245
     87  CA        17.4310   19.1030   -6.2050 C.3   341  LEU341      0.1561
     88  C         17.5020   17.9610   -7.2270 C.2   341  LEU341      0.2260
     89  O         17.4460   16.7840   -6.8580 O.2   341  LEU341     -0.2867
     90  CB        15.9840   19.5970   -6.0630 C.3   341  LEU341      0.0270
     91  CG        15.7620   20.6460   -4.9630 C.3   341  LEU341      0.0019
     92  CD1       14.2960   21.1030   -4.9790 C.3   341  LEU341      0.0001
     93  CD2       16.1430   20.0810   -3.6090 C.3   341  LEU341      0.0001
     94  N         20.7960   15.9980   -6.9200 N.3   344  LYS344     -0.1245
     95  CA        20.7130   15.0770   -5.7710 C.3   344  LYS344      0.1561
     96  C         19.8380   13.8550   -6.1040 C.2   344  LYS344      0.2260
     97  O         20.2140   12.7050   -5.8210 O.2   344  LYS344     -0.2867
     98  CB        20.1590   15.8100   -4.5330 C.3   344  LYS344      0.0271
     99  CG        20.3680   15.0340   -3.2220 C.3   344  LYS344      0.0035
    100  CD        19.8320   15.9320   -2.0930 C.3   344  LYS344      0.0206
    101  CE        20.6980   15.7940   -0.8440 C.3   344  LYS344      0.1093
    102  NZ        20.4200   14.4050   -0.3460 N.3   344  LYS344     -0.1314
@<TRIPOS>BOND
     1    88    89    2
     2    88    87    1
     3    94    95    1
     4    86    87    1
     5    87    90    1
     6    96    97    2
     7    96    95    1
     8    90    91    1
     9    95    98    1
    10    92    91    1
    11    91    93    1
    12    98    99    1
    13    13    12    2
    14    22    19    1
    15    22    23    1
    16    19    20    1
    17    19    18    1
    18    99   100    1
    19    20    21    2
    20    12    18   am
    21    12    11    1
    22    23    24    2
    23    23    25   am
    24    17    15   am
    25   100   101    1
    26    14    11    1
    27    14    15    1
    28    11    10    1
    29    15    16    2
    30    84    83    1
    31   101   102    1
    32    83    85    1
    33    83    80    1
    34    82    81    2
    35    81    80    1
    36    80    79    1
    37    79    71   am
    38    71    70    1
    39    71    72    2
    40    70    73    1
    41    70    69    1
    42    73    74    1
    43    68    66   ar
    44     9     8    1
    45    74    76   ar
    46    74    75   ar
    47     7     8    1
    48     7     6    1
    49    76    78   ar
    50    65    66    1
    51    65    64    1
    52    66    67   ar
    53     6     5    1
    54    75    77   ar
    55    78    77   ar
    56    64    61    1
    57     3     2    1
    58     3     4    2
    59     5     2    1
    60     2     1    1
    61    33    32   ar
    62    62    63    2
    63    62    61    1
    64    34    32   ar
    65    61    60    1
    66    32    31    1
    67    60    55   am
    68    52    51    1
    69    59    57    1
    70    50    51    1
    71    50    49    1
    72    31    30    1
    73    48    49    1
    74    48    45    1
    75    55    56    2
    76    55    54    1
    77    26    27    1
    78    30    27    1
    79    57    54    1
    80    57    58    1
    81    44    45    1
    82    54    53    1
    83    45    46    1
    84    42    41   ar
    85    27    28    1
    86    41    40    1
    87    41    43   ar
    88    29    28    2
    89    46    47    2
    90    40    39    1
    91    38    37    2
    92    39    36    1
    93    37    36    1
    94    35    36    1
