@<TRIPOS>MOLECULE
tmp/1gp6A04.pdb
 114 108 0 0 0
SMALL
GASTEIGER

@<TRIPOS>ATOM
      1  N          3.4290   26.3660    0.7420 N.3   121  ILE121     -0.1245
      2  CA         4.7400   26.0680    1.3070 C.3   121  ILE121      0.1561
      3  C          5.0260   26.7480    2.6380 C.2   121  ILE121      0.2260
      4  O          6.0040   26.4310    3.2950 O.2   121  ILE121     -0.2867
      5  CB         5.8490   26.4330    0.3210 C.3   121  ILE121      0.0252
      6  CG1        5.7890   27.9310    0.0330 C.3   121  ILE121      0.0019
      7  CG2        5.6960   25.6180   -0.9800 C.3   121  ILE121      0.0019
      8  CD1        6.9900   28.4670   -0.6860 C.3   121  ILE121      0.0001
      9  N          7.9480   27.9180    8.3070 N.3   143  PHE143     -0.1241
     10  CA         8.4760   28.7590    7.2660 C.3   143  PHE143      0.1605
     11  C          7.4270   29.7590    6.7690 C.2   143  PHE143      0.2264
     12  O          6.2850   29.3770    6.5300 O.2   143  PHE143     -0.2867
     13  CB         8.8990   27.8420    6.1080 C.3   143  PHE143      0.0534
     14  CG         9.4850   28.5750    4.9220 C.ar  143  PHE143     -0.0203
     15  CD1       10.7800   29.0980    4.9740 C.ar  143  PHE143     -0.0042
     16  CD2        8.7550   28.7070    3.7370 C.ar  143  PHE143     -0.0042
     17  CE1       11.3340   29.7280    3.8790 C.ar  143  PHE143     -0.0003
     18  CE2        9.3160   29.3490    2.6100 C.ar  143  PHE143     -0.0003
     19  CZ        10.5980   29.8520    2.6840 C.ar  143  PHE143     -0.0000
     20  N         12.5740   35.5300    3.8840 N.3   210  GLN210     -0.1245
     21  CA        11.8040   34.3670    4.3020 C.3   210  GLN210      0.1566
     22  C         12.3110   33.9590    5.6760 C.2   210  GLN210      0.2260
     23  O         13.5020   33.8630    5.8760 O.2   210  GLN210     -0.2867
     24  CB        12.0850   33.1940    3.3500 C.3   210  GLN210      0.0367
     25  CG        11.9070   33.4930    1.8620 C.3   210  GLN210      0.0905
     26  CD        10.4400   33.5810    1.4710 C.2   210  GLN210      0.2608
     27  OE1        9.5610   33.5060    2.3180 O.2   210  GLN210     -0.2717
     28  NE2       10.1750   33.7460    0.1730 N.am  210  GLN210     -0.0878
     29  N         20.8280   18.4460    6.7520 N.3   229  GLU229     -0.1245
     30  CA        21.8790   17.8280    5.9420 C.3   229  GLU229      0.1567
     31  C         22.9080   18.8340    5.4300 C.2   229  GLU229      0.2260
     32  O         22.6820   20.0430    5.4790 O.2   229  GLU229     -0.2867
     33  CB        21.2340   17.0820    4.7580 C.3   229  GLU229      0.0388
     34  CG        20.9720   17.9110    3.5010 C.3   229  GLU229      0.1160
     35  CD        19.7980   18.8670    3.5960 C.2   229  GLU229      0.3649
     36  OE1       19.1270   18.9550    4.6610 O.co2 229  GLU229     -0.2457
     37  OE2       19.5380   19.5410    2.5740 O.co2 229  GLU229     -0.2457
     38  N         24.6500   21.1820    3.0840 N.3   231  HIS231     -0.1226
     39  CA        24.0790   21.9450    1.9710 C.3   231  HIS231      0.1752
     40  C         24.6730   23.3300    1.9080 C.2   231  HIS231      0.2597
     41  O         25.3830   23.7510    2.8260 O.2   231  HIS231     -0.2718
     42  CB        22.5620   22.1290    2.1980 C.3   231  HIS231      0.0759
     43  CG        22.2300   23.0450    3.3500 C.ar  231  HIS231      0.0818
     44  ND1       22.3020   22.6440    4.6680 N.ar  231  HIS231     -0.2268
     45  CD2       21.9180   24.3650    3.3810 C.ar  231  HIS231      0.1154
     46  CE1       22.0610   23.6730    5.4630 C.ar  231  HIS231      0.1986
     47  NE2       21.8230   24.7320    4.7040 N.ar  231  HIS231     -0.2212
     48  N         24.3940   24.0400    0.8200 N.am  232  THR232     -0.1939
     49  CA        24.7620   25.4640    0.7770 C.3   232  THR232      0.2028
     50  C         23.4230   26.2330    0.6500 C.2   232  THR232      0.2642
     51  O         22.4580   25.7050    0.0870 O.2   232  THR232     -0.2714
     52  CB        25.6980   25.8460   -0.3860 C.3   232  THR232      0.1808
     53  OG1       25.0640   25.6010   -1.6540 O.3   232  THR232     -0.2208
     54  CG2       26.9800   25.0730   -0.2840 C.3   232  THR232      0.0379
     55  N         23.3520   27.4390    1.2100 N.am  233  ASP233     -0.1957
     56  CA        22.1310   28.2470    1.1410 C.3   233  ASP233      0.1840
     57  C         21.9680   28.8400   -0.2630 C.2   233  ASP233      0.2621
     58  O         22.9370   29.3160   -0.8480 O.2   233  ASP233     -0.2715
     59  CB        22.2020   29.4110    2.1280 C.3   233  ASP233      0.1450
     60  CG        21.9340   28.9970    3.5600 C.2   233  ASP233      0.3671
     61  OD1       21.7640   27.7870    3.8220 O.co2 233  ASP233     -0.2456
     62  OD2       21.8540   29.9090    4.4140 O.co2 233  ASP233     -0.2456
     63  N         20.7540   28.8130   -0.8070 N.am  234  VAL234     -0.1977
     64  CA        20.5490   29.3750   -2.1430 C.3   234  VAL234      0.1596
     65  C         20.2850   30.8670   -2.1730 C.2   234  VAL234      0.2287
     66  O         20.2530   31.4640   -3.2490 O.2   234  VAL234     -0.2864
     67  CB        19.3860   28.6470   -2.9050 C.3   234  VAL234      0.0276
     68  CG1       19.8000   27.2050   -3.1800 C.3   234  VAL234      0.0022
     69  CG2       18.0970   28.6920   -2.1000 C.3   234  VAL234      0.0022
     70  N         16.1300   36.5330   -0.4810 N.3   305  GLU305     -0.1245
     71  CA        16.0620   35.9410   -1.7990 C.3   305  GLU305      0.1567
     72  C         15.7060   36.8500   -2.9360 C.2   305  GLU305      0.2260
     73  O         14.9200   37.7730   -2.7930 O.2   305  GLU305     -0.2867
     74  CB        14.9780   34.8700   -1.8710 C.3   305  GLU305      0.0388
     75  CG        14.7620   33.9870   -0.7010 C.3   305  GLU305      0.1160
     76  CD        13.6650   32.9460   -0.9720 C.2   305  GLU305      0.3649
     77  OE1       12.6100   33.2510   -1.5830 O.co2 305  GLU305     -0.2457
     78  OE2       13.8500   31.8020   -0.5550 O.co2 305  GLU305     -0.2457
     79  N         16.4960   31.9280   -9.9180 N.3   333  PHE333     -0.1241
     80  CA        16.5910   31.3660   -8.5830 C.3   333  PHE333      0.1605
     81  C         15.8220   30.0180   -8.5320 C.2   333  PHE333      0.2264
     82  O         16.3180   29.0200   -7.9960 O.2   333  PHE333     -0.2867
     83  CB        16.0200   32.4080   -7.5880 C.3   333  PHE333      0.0534
     84  CG        15.9860   31.9490   -6.1490 C.ar  333  PHE333     -0.0203
     85  CD1       17.1510   31.8510   -5.3940 C.ar  333  PHE333     -0.0042
     86  CD2       14.7680   31.6890   -5.5240 C.ar  333  PHE333     -0.0042
     87  CE1       17.0940   31.5010   -4.0200 C.ar  333  PHE333     -0.0003
     88  CE2       14.7180   31.3430   -4.1690 C.ar  333  PHE333     -0.0003
     89  CZ        15.8810   31.2500   -3.4150 C.ar  333  PHE333     -0.0000
     90  N         17.4860   26.2100   -7.7350 N.3   337  ILE337     -0.1245
     91  CA        16.9880   25.3000   -6.6980 C.3   337  ILE337      0.1561
     92  C         16.6780   23.9700   -7.3830 C.2   337  ILE337      0.2260
     93  O         17.1550   22.9220   -6.9590 O.2   337  ILE337     -0.2867
     94  CB        15.7180   25.8920   -6.0570 C.3   337  ILE337      0.0252
     95  CG1       16.1090   27.0690   -5.1610 C.3   337  ILE337      0.0019
     96  CG2       14.9440   24.8360   -5.2780 C.3   337  ILE337      0.0019
     97  CD1       14.9540   27.8070   -4.6060 C.3   337  ILE337      0.0001
     98  N         19.8320   21.9190   -8.1980 N.3   340  LYS340     -0.1231
     99  CA        20.4630   21.3160   -7.0260 C.3   340  LYS340      0.1693
    100  C         19.6390   20.0920   -6.5780 C.2   340  LYS340      0.2591
    101  O         20.1980   19.0680   -6.2110 O.2   340  LYS340     -0.2718
    102  CB        20.5340   22.3360   -5.8690 C.3   340  LYS340      0.0285
    103  CG        21.2400   23.6500   -6.2210 C.3   340  LYS340      0.0035
    104  CD        21.3670   24.5530   -4.9910 C.3   340  LYS340      0.0206
    105  CE        22.4240   24.0520   -4.0270 C.3   340  LYS340      0.1093
    106  NZ        22.4580   24.8920   -2.7860 N.3   340  LYS340     -0.1314
    107  N         18.3120   20.2120   -6.6040 N.am  341  LEU341     -0.1980
    108  CA        17.4310   19.1030   -6.2050 C.3   341  LEU341      0.1596
    109  C         17.5020   17.9610   -7.2270 C.2   341  LEU341      0.2287
    110  O         17.4460   16.7840   -6.8580 O.2   341  LEU341     -0.2864
    111  CB        15.9840   19.5970   -6.0630 C.3   341  LEU341      0.0297
    112  CG        15.7620   20.6460   -4.9630 C.3   341  LEU341      0.0022
    113  CD1       14.2960   21.1030   -4.9790 C.3   341  LEU341      0.0001
    114  CD2       16.1430   20.0810   -3.6090 C.3   341  LEU341      0.0001
@<TRIPOS>BOND
     1    79    80    1
     2    80    81    1
     3    80    83    1
     4    81    82    2
     5    98    99    1
     6    90    91    1
     7    83    84    1
     8    92    93    2
     9    92    91    1
    10   109   110    2
    11   109   108    1
    12    99   100    1
    13    99   102    1
    14    91    94    1
    15   107   100   am
    16   107   108    1
    17   100   101    2
    18   103   102    1
    19   103   104    1
    20   108   111    1
    21    84    86   ar
    22    84    85   ar
    23   111   112    1
    24    94    96    1
    25    94    95    1
    26    86    88   ar
    27    85    87   ar
    28    95    97    1
    29   104   105    1
    30   113   112    1
    31   112   114    1
    32    88    89   ar
    33   105   106    1
    34    87    89   ar
    35    66    65    2
    36    68    67    1
    37    72    73    2
    38    72    71    1
    39    67    64    1
    40    67    69    1
    41    65    64    1
    42    64    63    1
    43    74    71    1
    44    74    75    1
    45    71    70    1
    46    53    52    1
    47    77    76   ar
    48     7     5    1
    49    76    75    1
    50    76    78   ar
    51    58    57    2
    52    63    57   am
    53     8     6    1
    54    52    54    1
    55    52    49    1
    56    57    56    1
    57     6     5    1
    58    51    50    2
    59    28    26   am
    60     5     2    1
    61    50    49    1
    62    50    55   am
    63     1     2    1
    64    49    48    1
    65    48    40   am
    66    56    55    1
    67    56    59    1
    68     2     3    1
    69    26    25    1
    70    26    27    2
    71    25    24    1
    72    40    39    1
    73    40    41    2
    74    39    42    1
    75    39    38    1
    76    59    60    1
    77    42    43    1
    78    37    35   ar
    79    18    19   ar
    80    18    16   ar
    81     3     4    2
    82    19    17   ar
    83    43    45   ar
    84    43    44   ar
    85    24    21    1
    86    45    47   ar
    87    34    35    1
    88    34    33    1
    89    60    61   ar
    90    60    62   ar
    91    35    36   ar
    92    16    14   ar
    93    17    15   ar
    94    20    21    1
    95    21    22    1
    96    44    46   ar
    97    47    46   ar
    98    33    30    1
    99    14    15   ar
   100    14    13    1
   101    31    32    2
   102    31    30    1
   103    22    23    2
   104    30    29    1
   105    13    10    1
   106    12    11    2
   107    11    10    1
   108    10     9    1
