@<TRIPOS>MOLECULE
tmp/1gp6A03.pdb
 143 136 0 0 0
SMALL
GASTEIGER

@<TRIPOS>ATOM
      1  N          1.6760   23.1070    6.7210 N.3   114  ASN114     -0.1240
      2  CA         1.8380   23.4850    5.3380 C.3   114  ASN114      0.1653
      3  C          1.1870   22.3990    4.4870 C.2   114  ASN114      0.2266
      4  O          0.6850   21.3940    5.0230 O.2   114  ASN114     -0.2867
      5  CB         3.3220   23.7020    4.9660 C.3   114  ASN114      0.1155
      6  CG         4.1860   22.4250    5.0980 C.2   114  ASN114      0.2627
      7  OD1        3.6800   21.2990    5.0740 O.2   114  ASN114     -0.2716
      8  ND2        5.5050   22.6150    5.2100 N.am  114  ASN114     -0.0877
      9  N          2.2800   21.1080    0.7440 N.3   116  GLN116     -0.1245
     10  CA         3.0620   21.2250   -0.4820 C.3   116  GLN116      0.1566
     11  C          2.3210   20.7800   -1.7280 C.2   116  GLN116      0.2260
     12  O          2.5500   21.3010   -2.8240 O.2   116  GLN116     -0.2867
     13  CB         4.3550   20.4270   -0.3420 C.3   116  GLN116      0.0367
     14  CG         5.4830   21.3000    0.1600 C.3   116  GLN116      0.0905
     15  CD         6.2700   20.6330    1.2490 C.2   116  GLN116      0.2608
     16  OE1        6.4820   19.4170    1.2250 O.2   116  GLN116     -0.2717
     17  NE2        6.7250   21.4310    2.2140 N.am  116  GLN116     -0.0878
     18  N          3.4290   26.3660    0.7420 N.3   121  ILE121     -0.1245
     19  CA         4.7400   26.0680    1.3070 C.3   121  ILE121      0.1561
     20  C          5.0260   26.7480    2.6380 C.2   121  ILE121      0.2260
     21  O          6.0040   26.4310    3.2950 O.2   121  ILE121     -0.2867
     22  CB         5.8490   26.4330    0.3210 C.3   121  ILE121      0.0252
     23  CG1        5.7890   27.9310    0.0330 C.3   121  ILE121      0.0019
     24  CG2        5.6960   25.6180   -0.9800 C.3   121  ILE121      0.0019
     25  CD1        6.9900   28.4670   -0.6860 C.3   121  ILE121      0.0001
     26  N         10.5310   18.0740    6.6640 N.3   127  LYS127     -0.1245
     27  CA        10.9230   17.7470    5.2940 C.3   127  LYS127      0.1561
     28  C         10.4910   16.3430    4.9010 C.2   127  LYS127      0.2260
     29  O         10.8310   15.3750    5.5780 O.2   127  LYS127     -0.2867
     30  CB        12.4510   17.8660    5.1220 C.3   127  LYS127      0.0271
     31  CG        12.9120   17.9180    3.6280 C.3   127  LYS127      0.0035
     32  CD        14.2620   17.2430    3.3760 C.3   127  LYS127      0.0206
     33  CE        14.1860   15.7020    3.4750 C.3   127  LYS127      0.1093
     34  NZ        15.5400   15.0490    3.2940 N.3   127  LYS127     -0.1314
     35  N          9.9460   22.5070   11.4040 N.3   141  TYR141     -0.1241
     36  CA        10.2260   23.9350   11.2100 C.3   141  TYR141      0.1605
     37  C          8.9430   24.6810   10.9290 C.2   141  TYR141      0.2264
     38  O          7.8820   24.0720   10.8040 O.2   141  TYR141     -0.2867
     39  CB        11.1980   24.1260   10.0230 C.3   141  TYR141      0.0534
     40  CG        10.7980   23.4520    8.7110 C.ar  141  TYR141     -0.0201
     41  CD1        9.8680   24.0240    7.8570 C.ar  141  TYR141     -0.0009
     42  CD2       11.3710   22.2380    8.3400 C.ar  141  TYR141     -0.0009
     43  CE1        9.5150   23.3930    6.6480 C.ar  141  TYR141      0.0417
     44  CE2       11.0320   21.6050    7.1610 C.ar  141  TYR141      0.0417
     45  CZ        10.1140   22.1710    6.3220 C.ar  141  TYR141      0.1957
     46  OH         9.8300   21.5420    5.1310 O.3   141  TYR141     -0.2866
     47  N          7.9480   27.9180    8.3070 N.3   143  PHE143     -0.1241
     48  CA         8.4760   28.7590    7.2660 C.3   143  PHE143      0.1605
     49  C          7.4270   29.7590    6.7690 C.2   143  PHE143      0.2264
     50  O          6.2850   29.3770    6.5300 O.2   143  PHE143     -0.2867
     51  CB         8.8990   27.8420    6.1080 C.3   143  PHE143      0.0534
     52  CG         9.4850   28.5750    4.9220 C.ar  143  PHE143     -0.0203
     53  CD1       10.7800   29.0980    4.9740 C.ar  143  PHE143     -0.0042
     54  CD2        8.7550   28.7070    3.7370 C.ar  143  PHE143     -0.0042
     55  CE1       11.3340   29.7280    3.8790 C.ar  143  PHE143     -0.0003
     56  CE2        9.3160   29.3490    2.6100 C.ar  143  PHE143     -0.0003
     57  CZ        10.5980   29.8520    2.6840 C.ar  143  PHE143     -0.0000
     58  N         12.5790   31.0940    8.5660 N.3   212  LYS212     -0.1245
     59  CA        12.4690   29.6640    8.8210 C.3   212  LYS212      0.1561
     60  C         12.9070   29.3990   10.2560 C.2   212  LYS212      0.2260
     61  O         14.0650   29.6230   10.6110 O.2   212  LYS212     -0.2867
     62  CB        13.3370   28.8700    7.8460 C.3   212  LYS212      0.0271
     63  CG        13.0750   27.3580    7.9980 C.3   212  LYS212      0.0035
     64  CD        13.9990   26.5360    7.1140 C.3   212  LYS212      0.0206
     65  CE        13.6650   25.0530    7.2680 C.3   212  LYS212      0.1093
     66  NZ        14.7930   24.1790    6.7710 N.3   212  LYS212     -0.1314
     67  N         24.6500   21.1820    3.0840 N.3   231  HIS231     -0.1226
     68  CA        24.0790   21.9450    1.9710 C.3   231  HIS231      0.1752
     69  C         24.6730   23.3300    1.9080 C.2   231  HIS231      0.2597
     70  O         25.3830   23.7510    2.8260 O.2   231  HIS231     -0.2718
     71  CB        22.5620   22.1290    2.1980 C.3   231  HIS231      0.0759
     72  CG        22.2300   23.0450    3.3500 C.ar  231  HIS231      0.0818
     73  ND1       22.3020   22.6440    4.6680 N.ar  231  HIS231     -0.2268
     74  CD2       21.9180   24.3650    3.3810 C.ar  231  HIS231      0.1154
     75  CE1       22.0610   23.6730    5.4630 C.ar  231  HIS231      0.1986
     76  NE2       21.8230   24.7320    4.7040 N.ar  231  HIS231     -0.2212
     77  N         24.3940   24.0400    0.8200 N.am  232  THR232     -0.1939
     78  CA        24.7620   25.4640    0.7770 C.3   232  THR232      0.2028
     79  C         23.4230   26.2330    0.6500 C.2   232  THR232      0.2642
     80  O         22.4580   25.7050    0.0870 O.2   232  THR232     -0.2714
     81  CB        25.6980   25.8460   -0.3860 C.3   232  THR232      0.1808
     82  OG1       25.0640   25.6010   -1.6540 O.3   232  THR232     -0.2208
     83  CG2       26.9800   25.0730   -0.2840 C.3   232  THR232      0.0379
     84  N         23.3520   27.4390    1.2100 N.am  233  ASP233     -0.1957
     85  CA        22.1310   28.2470    1.1410 C.3   233  ASP233      0.1840
     86  C         21.9680   28.8400   -0.2630 C.2   233  ASP233      0.2622
     87  O         22.9370   29.3160   -0.8480 O.2   233  ASP233     -0.2715
     88  CB        22.2020   29.4110    2.1280 C.3   233  ASP233      0.1450
     89  CG        21.9340   28.9970    3.5600 C.2   233  ASP233      0.3671
     90  OD1       21.7640   27.7870    3.8220 O.co2 233  ASP233     -0.2456
     91  OD2       21.8540   29.9090    4.4140 O.co2 233  ASP233     -0.2456
     92  N         20.7540   28.8130   -0.8070 N.am  234  VAL234     -0.1963
     93  CA        20.5490   29.3750   -2.1430 C.3   234  VAL234      0.1727
     94  C         20.2850   30.8670   -2.1730 C.2   234  VAL234      0.2616
     95  O         20.2530   31.4640   -3.2490 O.2   234  VAL234     -0.2715
     96  CB        19.3860   28.6470   -2.9050 C.3   234  VAL234      0.0290
     97  CG1       19.8000   27.2050   -3.1800 C.3   234  VAL234      0.0023
     98  CG2       18.0970   28.6920   -2.1000 C.3   234  VAL234      0.0023
     99  N         20.1020   31.4590   -0.9970 N.am  235  SER235     -0.1950
    100  CA        19.8100   32.8880   -0.8700 C.3   235  SER235      0.1924
    101  C         20.9810   33.7850   -1.3280 C.2   235  SER235      0.2314
    102  O         22.0360   33.3010   -1.7390 O.2   235  SER235     -0.2863
    103  CB        19.5600   33.1890    0.6090 C.3   235  SER235      0.2116
    104  OG        20.7070   32.7470    1.3510 O.3   235  SER235     -0.2180
    105  N         16.2280   34.2230    5.1900 N.3   303  PHE303     -0.1241
    106  CA        16.8620   34.1390    3.8720 C.3   303  PHE303      0.1605
    107  C         16.4540   35.3050    3.0070 C.2   303  PHE303      0.2264
    108  O         15.2630   35.5630    2.8380 O.2   303  PHE303     -0.2867
    109  CB        16.4400   32.8410    3.1890 C.3   303  PHE303      0.0534
    110  CG        16.6410   31.6100    4.0400 C.ar  303  PHE303     -0.0203
    111  CD1       15.5530   30.9620    4.6090 C.ar  303  PHE303     -0.0042
    112  CD2       17.9200   31.0920    4.2300 C.ar  303  PHE303     -0.0042
    113  CE1       15.7160   29.7970    5.3710 C.ar  303  PHE303     -0.0003
    114  CE2       18.1140   29.9300    4.9770 C.ar  303  PHE303     -0.0003
    115  CZ        17.0000   29.2740    5.5570 C.ar  303  PHE303     -0.0000
    116  N         16.1300   36.5330   -0.4810 N.3   305  GLU305     -0.1245
    117  CA        16.0620   35.9410   -1.7990 C.3   305  GLU305      0.1567
    118  C         15.7060   36.8500   -2.9360 C.2   305  GLU305      0.2260
    119  O         14.9200   37.7730   -2.7930 O.2   305  GLU305     -0.2867
    120  CB        14.9780   34.8700   -1.8710 C.3   305  GLU305      0.0388
    121  CG        14.7620   33.9870   -0.7010 C.3   305  GLU305      0.1160
    122  CD        13.6650   32.9460   -0.9720 C.2   305  GLU305      0.3649
    123  OE1       12.6100   33.2510   -1.5830 O.co2 305  GLU305     -0.2457
    124  OE2       13.8500   31.8020   -0.5550 O.co2 305  GLU305     -0.2457
    125  N         16.4960   31.9280   -9.9180 N.3   333  PHE333     -0.1241
    126  CA        16.5910   31.3660   -8.5830 C.3   333  PHE333      0.1605
    127  C         15.8220   30.0180   -8.5320 C.2   333  PHE333      0.2264
    128  O         16.3180   29.0200   -7.9960 O.2   333  PHE333     -0.2867
    129  CB        16.0200   32.4080   -7.5880 C.3   333  PHE333      0.0534
    130  CG        15.9860   31.9490   -6.1490 C.ar  333  PHE333     -0.0203
    131  CD1       17.1510   31.8510   -5.3940 C.ar  333  PHE333     -0.0042
    132  CD2       14.7680   31.6890   -5.5240 C.ar  333  PHE333     -0.0042
    133  CE1       17.0940   31.5010   -4.0200 C.ar  333  PHE333     -0.0003
    134  CE2       14.7180   31.3430   -4.1690 C.ar  333  PHE333     -0.0003
    135  CZ        15.8810   31.2500   -3.4150 C.ar  333  PHE333     -0.0000
    136  N         17.4860   26.2100   -7.7350 N.3   337  ILE337     -0.1245
    137  CA        16.9880   25.3000   -6.6980 C.3   337  ILE337      0.1561
    138  C         16.6780   23.9700   -7.3830 C.2   337  ILE337      0.2260
    139  O         17.1550   22.9220   -6.9590 O.2   337  ILE337     -0.2867
    140  CB        15.7180   25.8920   -6.0570 C.3   337  ILE337      0.0252
    141  CG1       16.1090   27.0690   -5.1610 C.3   337  ILE337      0.0019
    142  CG2       14.9440   24.8360   -5.2780 C.3   337  ILE337      0.0019
    143  CD1       14.9540   27.8070   -4.6060 C.3   337  ILE337      0.0001
@<TRIPOS>BOND
     1   125   126    1
     2   126   127    1
     3   126   129    1
     4   127   128    2
     5   136   137    1
     6   129   130    1
     7   138   139    2
     8   138   137    1
     9   137   140    1
    10   130   132   ar
    11   130   131   ar
    12   140   142    1
    13   140   141    1
    14   132   134   ar
    15   131   133   ar
    16   141   143    1
    17   134   135   ar
    18   133   135   ar
    19    95    94    2
    20    97    96    1
    21   118   119    2
    22   118   117    1
    23    96    93    1
    24    96    98    1
    25    12    11    2
    26    94    93    1
    27    94    99   am
    28    93    92    1
    29   120   117    1
    30   120   121    1
    31   117   116    1
    32   102   101    2
    33    11    10    1
    34    82    81    1
    35   123   122   ar
    36   101   100    1
    37    99   100    1
    38    24    22    1
    39   122   121    1
    40   122   124   ar
    41   100   103    1
    42    87    86    2
    43    92    86   am
    44    25    23    1
    45    10    13    1
    46    10     9    1
    47    81    83    1
    48    81    78    1
    49    13    14    1
    50    86    85    1
    51    23    22    1
    52    80    79    2
    53    14    15    1
    54    22    19    1
    55   103   104    1
    56    79    78    1
    57    79    84   am
    58    18    19    1
    59    78    77    1
    60    77    69   am
    61    85    84    1
    62    85    88    1
    63    16    15    2
    64    15    17   am
    65    19    20    1
    66    69    68    1
    67    69    70    2
    68    68    71    1
    69    68    67    1
    70    88    89    1
    71    71    72    1
    72    56    57   ar
    73    56    54   ar
    74    20    21    2
    75    57    55   ar
    76   108   107    2
    77   107   106    1
    78   109   106    1
    79   109   110    1
    80    34    33    1
    81    72    74   ar
    82    72    73   ar
    83    32    33    1
    84    32    31    1
    85    74    76   ar
    86    89    90   ar
    87    89    91   ar
    88    31    30    1
    89    54    52   ar
    90   106   105    1
    91    55    53   ar
    92   110   112   ar
    93   110   111   ar
    94   112   114   ar
    95     3     4    2
    96     3     2    1
    97   111   113   ar
    98    73    75   ar
    99    76    75   ar
   100    28    27    1
   101    28    29    2
   102    52    53   ar
   103    52    51    1
   104     5     6    1
   105     5     2    1
   106   114   115   ar
   107     7     6    2
   108     6     8   am
   109    30    27    1
   110    46    45    1
   111    27    26    1
   112     2     1    1
   113   113   115   ar
   114    51    48    1
   115    45    43   ar
   116    45    44   ar
   117    50    49    2
   118    43    41   ar
   119    49    48    1
   120    66    65    1
   121    64    65    1
   122    64    63    1
   123    44    42   ar
   124    48    47    1
   125    62    63    1
   126    62    59    1
   127    41    40   ar
   128    42    40   ar
   129    58    59    1
   130    40    39    1
   131    59    60    1
   132    39    36    1
   133    60    61    2
   134    38    37    2
   135    37    36    1
   136    36    35    1
