@<TRIPOS>MOLECULE
tmp/1gp9B01.pdb
 115 113 0 0 0
SMALL
GASTEIGER

@<TRIPOS>ATOM
      1  N         40.8690   -3.6810   17.4410 N.3     7  SER7       -0.1202
      2  CA        42.1890   -4.2940   17.3700 C.3     7  SER7        0.2020
      3  C         41.9480   -5.7930   17.2130 C.2     7  SER7        0.2619
      4  O         41.6100   -6.4800   18.1710 O.2     7  SER7       -0.2717
      5  CB        42.9950   -4.0110   18.6450 C.3     7  SER7        0.2103
      6  OG        43.2180   -2.6190   18.8270 O.3     7  SER7       -0.2182
      7  N         42.1200   -6.2940   15.9980 N.am    8  ALA8       -0.1965
      8  CA        41.8920   -7.7010   15.7060 C.3     8  ALA8        0.1728
      9  C         42.8050   -8.6650   16.4520 C.2     8  ALA8        0.2616
     10  O         43.9030   -8.3020   16.8340 O.2     8  ALA8       -0.2715
     11  CB        42.0160   -7.9340   14.2020 C.3     8  ALA8        0.0334
     12  N         42.3320   -9.8940   16.6440 N.am    9  LYS9       -0.1963
     13  CA        43.0910  -10.9480   17.3170 C.3     9  LYS9        0.1728
     14  C         43.7820  -10.4900   18.6050 C.2     9  LYS9        0.2616
     15  O         44.9210  -10.8890   18.9190 O.2     9  LYS9       -0.2715
     16  CB        44.1010  -11.5490   16.3350 C.3     9  LYS9        0.0311
     17  CG        43.4180  -12.1980   15.1350 C.3     9  LYS9        0.0038
     18  CD        44.3530  -12.8230   14.0770 C.3     9  LYS9        0.0206
     19  CE        43.5060  -13.3710   12.9160 C.3     9  LYS9        0.1093
     20  NZ        44.2530  -14.2170   11.9560 N.3     9  LYS9       -0.1314
     21  N         43.0630   -9.6780   19.3660 N.am   10  THR10      -0.1951
     22  CA        43.5920   -9.1460   20.6010 C.3    10  THR10       0.1897
     23  C         42.5610   -9.1200   21.7280 C.2    10  THR10       0.2313
     24  O         41.4160   -8.6970   21.5360 O.2    10  THR10      -0.2863
     25  CB        44.1000   -7.7170   20.3910 C.3    10  THR10       0.1794
     26  OG1       44.9160   -7.6770   19.2200 O.3    10  THR10      -0.2208
     27  CG2       44.9090   -7.2630   21.5840 C.3    10  THR10       0.0378
     28  N         48.1640   -6.8710   26.7370 N.3    72  LYS72      -0.1245
     29  CA        47.3810   -7.5730   25.7380 C.3    72  LYS72       0.1561
     30  C         48.0670   -8.8560   25.3050 C.2    72  LYS72       0.2260
     31  O         49.2900   -8.9440   25.3320 O.2    72  LYS72      -0.2867
     32  CB        47.1540   -6.6770   24.5280 C.3    72  LYS72       0.0271
     33  CG        48.4010   -5.9660   24.0800 C.3    72  LYS72       0.0035
     34  CD        48.1010   -4.9700   22.9750 C.3    72  LYS72       0.0206
     35  CE        47.1320   -3.8980   23.4410 C.3    72  LYS72       0.1093
     36  NZ        46.9330   -2.8200   22.4260 N.3    72  LYS72      -0.1314
     37  N         47.7570  -12.1820   22.3140 N.3    74  PHE74      -0.1241
     38  CA        47.2090  -12.7140   21.0840 C.3    74  PHE74       0.1605
     39  C         46.1180  -13.7700   21.2530 C.2    74  PHE74       0.2264
     40  O         46.1190  -14.5400   22.2130 O.2    74  PHE74      -0.2867
     41  CB        48.3430  -13.2990   20.2450 C.3    74  PHE74       0.0534
     42  CG        47.9400  -13.6170   18.8500 C.ar   74  PHE74      -0.0203
     43  CD1       48.0540  -12.6610   17.8590 C.ar   74  PHE74      -0.0042
     44  CD2       47.3680  -14.8460   18.5430 C.ar   74  PHE74      -0.0042
     45  CE1       47.6000  -12.9150   16.5750 C.ar   74  PHE74      -0.0003
     46  CE2       46.9110  -15.1120   17.2710 C.ar   74  PHE74      -0.0003
     47  CZ        47.0260  -14.1410   16.2800 C.ar   74  PHE74      -0.0000
     48  N         53.1120    0.2360    8.9680 N.3   126  PRO126     -0.2116
     49  CA        53.2490   -0.0910   10.3900 C.3   126  PRO126      0.1372
     50  C         54.5510   -0.8450   10.6250 C.2   126  PRO126      0.2244
     51  O         55.2080   -0.6800   11.6500 O.2   126  PRO126     -0.2868
     52  CB        52.0260   -0.9570   10.6550 C.3   126  PRO126      0.0268
     53  CG        51.0290   -0.4190    9.6870 C.3   126  PRO126      0.0207
     54  CD        51.8310   -0.2620    8.4380 C.3   126  PRO126      0.0892
     55  N         57.0760    1.2190   11.5680 N.3   129  TYR129     -0.1227
     56  CA        56.7270    2.0840   12.6700 C.3   129  TYR129      0.1736
     57  C         55.9330    1.3700   13.7300 C.2   129  TYR129      0.2595
     58  O         54.7620    1.6770   13.9380 O.2   129  TYR129     -0.2718
     59  CB        55.9360    3.2860   12.1660 C.3   129  TYR129      0.0548
     60  CG        56.6760    4.1010   11.1360 C.ar  129  TYR129     -0.0200
     61  CD1       56.6720    3.7290    9.7920 C.ar  129  TYR129     -0.0009
     62  CD2       57.3990    5.2340   11.5080 C.ar  129  TYR129     -0.0009
     63  CE1       57.3660    4.4650    8.8470 C.ar  129  TYR129      0.0417
     64  CE2       58.0970    5.9770   10.5700 C.ar  129  TYR129      0.0417
     65  CZ        58.0770    5.5900    9.2400 C.ar  129  TYR129      0.1957
     66  OH        58.7600    6.3320    8.3030 O.3   129  TYR129     -0.2866
     67  N         56.5640    0.4120   14.3980 N.am  130  ARG130     -0.1966
     68  CA        55.8770   -0.3080   15.4530 C.3   130  ARG130      0.1729
     69  C         55.5990    0.6920   16.5860 C.2   130  ARG130      0.2617
     70  O         56.2260    1.7600   16.6660 O.2   130  ARG130     -0.2715
     71  CB        56.7180   -1.4990   15.9320 C.3   130  ARG130      0.0348
     72  CG        56.8750   -2.5940   14.8650 C.3   130  ARG130      0.0492
     73  CD        57.5860   -3.8370   15.4140 C.3   130  ARG130      0.2205
     74  NE        57.9190   -4.8090   14.3700 N.pl3 130  ARG130     -0.0865
     75  CZ        58.5690   -5.9480   14.5990 C.cat 130  ARG130      0.5346
     76  NH1       58.9530   -6.2520   15.8350 N.pl3 130  ARG130      0.1354
     77  NH2       58.8430   -6.7810   13.5990 N.pl3 130  ARG130      0.1354
     78  N         54.6440    0.3470   17.4430 N.am  131  GLY131     -0.1940
     79  CA        54.2490    1.2160   18.5320 C.3   131  GLY131      0.2014
     80  C         53.7420    2.5780   18.0740 C.2   131  GLY131      0.2639
     81  O         53.4970    3.4370   18.9100 O.2   131  GLY131     -0.2714
     82  N         53.5780    2.7880   16.7690 N.am  132  LYS132     -0.1963
     83  CA        53.1170    4.0830   16.2650 C.3   132  LYS132      0.1728
     84  C         51.6520    4.1440   15.8110 C.2   132  LYS132      0.2616
     85  O         51.1670    5.2080   15.4110 O.2   132  LYS132     -0.2715
     86  CB        54.0290    4.5570   15.1360 C.3   132  LYS132      0.0311
     87  CG        55.4490    4.8370   15.5810 C.3   132  LYS132      0.0038
     88  CD        55.4670    5.8850   16.6670 C.3   132  LYS132      0.0206
     89  CE        56.8250    6.5410   16.7820 C.3   132  LYS132      0.1093
     90  NZ        57.8940    5.5790   17.1010 N.3   132  LYS132     -0.1314
     91  N         50.9770    2.9950   15.8670 N.am  133  ASP133     -0.1957
     92  CA        49.5630    2.8560   15.5440 C.3   133  ASP133      0.1840
     93  C         49.0980    3.4320   14.2020 C.2   133  ASP133      0.2622
     94  O         48.0660    4.1040   14.1310 O.2   133  ASP133     -0.2715
     95  CB        48.7520    3.4480   16.7160 C.3   133  ASP133      0.1450
     96  CG        47.3130    2.9590   16.7690 C.2   133  ASP133      0.3671
     97  OD1       47.0410    1.7680   16.5000 O.co2 133  ASP133     -0.2456
     98  OD2       46.4520    3.7860   17.1110 O.co2 133  ASP133     -0.2456
     99  N         49.8450    3.1570   13.1370 N.am  134  LEU134     -0.1963
    100  CA        49.4710    3.6410   11.8080 C.3   134  LEU134      0.1728
    101  C         48.4430    2.6810   11.2340 C.2   134  LEU134      0.2616
    102  O         48.7160    1.9540   10.2890 O.2   134  LEU134     -0.2715
    103  CB        50.6820    3.6990   10.8820 C.3   134  LEU134      0.0311
    104  CG        51.8410    4.6150   11.2980 C.3   134  LEU134      0.0022
    105  CD1       52.9640    4.5070   10.2480 C.3   134  LEU134      0.0001
    106  CD2       51.3690    6.0480   11.4240 C.3   134  LEU134      0.0001
    107  N         47.2530    2.6920   11.8180 N.am  135  GLN135     -0.1977
    108  CA        46.1810    1.8140   11.3930 C.3   135  GLN135      0.1601
    109  C         45.0160    2.6010   10.7850 C.2   135  GLN135      0.2287
    110  O         44.8990    3.8030   10.9940 O.2   135  GLN135     -0.2864
    111  CB        45.7070    1.0130   12.6040 C.3   135  GLN135      0.0394
    112  CG        46.8460    0.4780   13.4830 C.3   135  GLN135      0.0908
    113  CD        47.7880   -0.4770   12.7310 C.2   135  GLN135      0.2608
    114  OE1       47.3440   -1.3310   11.9510 O.2   135  GLN135     -0.2717
    115  NE2       49.0910   -0.3380   12.9790 N.am  135  GLN135     -0.0878
@<TRIPOS>BOND
     1    66    65    1
     2    54    48    1
     3    54    53    1
     4    63    65   ar
     5    63    61   ar
     6    48    49    1
     7    65    64   ar
     8    53    52    1
     9    61    60   ar
    10   105   104    1
    11   102   101    2
    12    49    50    1
    13    49    52    1
    14    64    62   ar
    15    50    51    2
    16   109   110    2
    17   109   108    1
    18   103   104    1
    19   103   100    1
    20    60    62   ar
    21    60    59    1
    22   101   100    1
    23   101   107   am
    24   104   106    1
    25   108   107    1
    26   108   111    1
    27    55    56    1
    28   100    99    1
    29   114   113    2
    30    20    19    1
    31    59    56    1
    32   111   112    1
    33    56    57    1
    34   113   115   am
    35   113   112    1
    36    19    18    1
    37    99    93   am
    38    77    75    1
    39    57    58    2
    40    57    67   am
    41    18    17    1
    42    94    93    2
    43    93    92    1
    44    11     8    1
    45    74    75    2
    46    74    73    1
    47    67    68    1
    48    75    76    1
    49    72    73    1
    50    72    71    1
    51    17    16    1
    52    86    87    1
    53    86    83    1
    54    85    84    2
    55    68    71    1
    56    68    69    1
    57    92    91    1
    58    92    95    1
    59    87    88    1
    60     8     7    1
    61     8     9    1
    62    84    91   am
    63    84    83    1
    64     7     3   am
    65    83    82    1
    66    47    45   ar
    67    47    46   ar
    68    16    13    1
    69     9    12   am
    70     9    10    2
    71    97    96   ar
    72    45    43   ar
    73    69    70    2
    74    69    78   am
    75    12    13    1
    76    88    89    1
    77    95    96    1
    78    82    80   am
    79    96    98   ar
    80    89    90    1
    81     3     2    1
    82     3     4    2
    83    46    44   ar
    84    13    14    1
    85     2     1    1
    86     2     5    1
    87    78    79    1
    88    43    42   ar
    89    80    79    1
    90    80    81    2
    91    44    42   ar
    92    14    15    2
    93    14    21   am
    94     5     6    1
    95    42    41    1
    96    26    25    1
    97    21    22    1
    98    41    38    1
    99    25    22    1
   100    25    27    1
   101    22    23    1
   102    38    39    1
   103    38    37    1
   104    39    40    2
   105    24    23    2
   106    36    35    1
   107    34    35    1
   108    34    33    1
   109    33    32    1
   110    32    29    1
   111    30    31    2
   112    30    29    1
   113    29    28    1
