@<TRIPOS>MOLECULE
tmp/1gpeA04.pdb
 95 95 0 0 0
SMALL
GASTEIGER

@<TRIPOS>ATOM
      1  N         19.6120  -15.6330  -14.6890 N.3   341  ARG341     -0.1245
      2  CA        20.9250  -15.1060  -14.3050 C.3   341  ARG341      0.1563
      3  C         21.8510  -15.5190  -15.4410 C.2   341  ARG341      0.2260
      4  O         21.6110  -16.5310  -16.1090 O.2   341  ARG341     -0.2867
      5  CB        21.2390  -15.6940  -12.9480 C.3   341  ARG341      0.0307
      6  CG        22.6930  -15.7670  -12.5370 C.3   341  ARG341      0.0489
      7  CD        22.7820  -16.7090  -11.3290 C.3   341  ARG341      0.2205
      8  NE        21.8180  -16.3500  -10.2920 N.pl3 341  ARG341     -0.0865
      9  CZ        20.7960  -17.1010   -9.8850 C.cat 341  ARG341      0.5346
     10  NH1       20.5490  -18.2880  -10.4300 N.pl3 341  ARG341      0.1354
     11  NH2       20.0020  -16.6540   -8.9150 N.pl3 341  ARG341      0.1354
     12  N         23.5470  -19.3340  -19.6760 N.3   488  PHE488     -0.1227
     13  CA        22.4320  -19.5340  -18.7660 C.3   488  PHE488      0.1736
     14  C         22.9060  -19.9630  -17.3860 C.2   488  PHE488      0.2595
     15  O         23.5110  -21.0280  -17.2700 O.2   488  PHE488     -0.2718
     16  CB        21.4810  -20.5890  -19.3290 C.3   488  PHE488      0.0547
     17  CG        20.3250  -20.8970  -18.4260 C.ar  488  PHE488     -0.0202
     18  CD1       19.3880  -19.9230  -18.1130 C.ar  488  PHE488     -0.0042
     19  CD2       20.1720  -22.1690  -17.8890 C.ar  488  PHE488     -0.0042
     20  CE1       18.3260  -20.2150  -17.2900 C.ar  488  PHE488     -0.0003
     21  CE2       19.1130  -22.4560  -17.0510 C.ar  488  PHE488     -0.0003
     22  CZ        18.1790  -21.4800  -16.7580 C.ar  488  PHE488     -0.0000
     23  N         22.5760  -19.1860  -16.3650 N.am  489  ALA489     -0.1966
     24  CA        23.0040  -19.5300  -15.0080 C.3   489  ALA489      0.1728
     25  C         21.8070  -19.6820  -14.0770 C.2   489  ALA489      0.2617
     26  O         21.9150  -19.4810  -12.8660 O.2   489  ALA489     -0.2715
     27  CB        23.9770  -18.4970  -14.4730 C.3   489  ALA489      0.0334
     28  N         20.6630  -20.0520  -14.6500 N.am  490  GLY490     -0.1940
     29  CA        19.5040  -20.3090  -13.7980 C.3   490  GLY490      0.2014
     30  C         18.4580  -19.2090  -13.8580 C.2   490  GLY490      0.2639
     31  O         18.7160  -18.0160  -13.8230 O.2   490  GLY490     -0.2714
     32  N         17.2200  -19.6890  -13.9930 N.am  491  GLU491     -0.1963
     33  CA        16.0970  -18.7520  -14.0840 C.3   491  GLU491      0.1733
     34  C         15.7850  -18.1910  -12.7070 C.2   491  GLU491      0.2617
     35  O         15.8730  -18.9080  -11.7030 O.2   491  GLU491     -0.2715
     36  CB        14.8960  -19.4740  -14.6760 C.3   491  GLU491      0.0429
     37  CG        13.7370  -18.5430  -15.0230 C.3   491  GLU491      0.1163
     38  CD        12.5780  -19.3550  -15.5640 C.2   491  GLU491      0.3649
     39  OE1       12.6580  -19.7670  -16.7410 O.co2 491  GLU491     -0.2457
     40  OE2       11.6030  -19.5830  -14.8160 O.co2 491  GLU491     -0.2457
     41  N         15.4440  -16.9080  -12.6680 N.am  492  THR492     -0.1937
     42  CA        15.0870  -16.3040  -11.3820 C.3   492  THR492      0.2028
     43  C         13.6130  -15.9160  -11.4170 C.2   492  THR492      0.2642
     44  O         12.9620  -15.8300  -10.3810 O.2   492  THR492     -0.2714
     45  CB        15.9350  -15.0750  -11.0330 C.3   492  THR492      0.1808
     46  OG1       15.7540  -14.0900  -12.0610 O.3   492  THR492     -0.2208
     47  CG2       17.4110  -15.4160  -10.9160 C.3   492  THR492      0.0379
     48  N         13.0880  -15.7070  -12.6170 N.am  493  LEU493     -0.1963
     49  CA        11.6840  -15.3090  -12.7850 C.3   493  LEU493      0.1713
     50  C         11.1840  -15.8540  -14.1080 C.2   493  LEU493      0.2458
     51  O         11.8180  -15.5890  -15.1300 O.2   493  LEU493     -0.2730
     52  CB        11.6760  -13.7830  -12.8310 C.3   493  LEU493      0.0310
     53  CG        10.3740  -13.0060  -12.7730 C.3   493  LEU493      0.0022
     54  CD1        9.6990  -13.1910  -11.4250 C.3   493  LEU493      0.0001
     55  CD2       10.6700  -11.5230  -13.0180 C.3   493  LEU493      0.0001
     56  N         10.1430  -16.6710  -14.0830 N.am  494  PRO494     -0.2716
     57  CA         9.4120  -17.0480  -12.8990 C.3   494  PRO494      0.1536
     58  C         10.2040  -17.8630  -11.8800 C.2   494  PRO494      0.2599
     59  O          9.8770  -17.8770  -10.6960 O.2   494  PRO494     -0.2715
     60  CB         8.2910  -17.9480  -13.4270 C.3   494  PRO494      0.0310
     61  CG         8.1590  -17.6300  -14.8730 C.3   494  PRO494      0.0237
     62  CD         9.5550  -17.2740  -15.3170 C.3   494  PRO494      0.0939
     63  N         11.2420  -18.5520  -12.3320 N.am  495  GLY495     -0.1941
     64  CA        12.0950  -19.3550  -11.4650 C.3   495  GLY495      0.2014
     65  C         11.2720  -20.4490  -10.8000 C.2   495  GLY495      0.2639
     66  O         10.5490  -21.1920  -11.4570 O.2   495  GLY495     -0.2714
     67  N         11.3260  -20.4830   -9.4660 N.am  496  TYR496     -0.1959
     68  CA        10.5730  -21.4780   -8.7130 C.3   496  TYR496      0.1771
     69  C          9.0730  -21.2440   -8.7670 C.2   496  TYR496      0.2619
     70  O          8.3060  -22.1660   -8.4920 O.2   496  TYR496     -0.2715
     71  CB        11.0420  -21.5160   -7.2590 C.3   496  TYR496      0.0574
     72  CG        12.4960  -21.8330   -7.0250 C.ar  496  TYR496     -0.0198
     73  CD1       13.2970  -22.4850   -7.9540 C.ar  496  TYR496     -0.0009
     74  CD2       13.0810  -21.4620   -5.8130 C.ar  496  TYR496     -0.0009
     75  CE1       14.6250  -22.7530   -7.6950 C.ar  496  TYR496      0.0417
     76  CE2       14.4080  -21.7320   -5.5420 C.ar  496  TYR496      0.0417
     77  CZ        15.1750  -22.3780   -6.4920 C.ar  496  TYR496      0.1957
     78  OH        16.5010  -22.6350   -6.2080 O.3   496  TYR496     -0.2866
     79  N          8.6180  -20.0620   -9.1530 N.am  497  ASN497     -0.1972
     80  CA         7.2200  -19.7070   -9.2570 C.3   497  ASN497      0.1688
     81  C          6.4790  -20.4010  -10.3830 C.2   497  ASN497      0.2292
     82  O          5.2470  -20.3620  -10.4210 O.2   497  ASN497     -0.2864
     83  CB         7.0800  -18.1830   -9.4220 C.3   497  ASN497      0.1181
     84  CG         7.6460  -17.4610   -8.2120 C.2   497  ASN497      0.2629
     85  OD1        7.5040  -17.9870   -7.1070 O.2   497  ASN497     -0.2716
     86  ND2        8.2610  -16.3040   -8.3980 N.am  497  ASN497     -0.0877
     87  N          9.6190  -25.6480  -14.4510 N.3   500  GLN500     -0.1245
     88  CA        10.4390  -25.4960  -15.6420 C.3   500  GLN500      0.1566
     89  C          9.8520  -26.1350  -16.8890 C.2   500  GLN500      0.2260
     90  O         10.0740  -25.6390  -18.0020 O.2   500  GLN500     -0.2867
     91  CB        11.8640  -25.9950  -15.3920 C.3   500  GLN500      0.0367
     92  CG        12.6650  -25.2200  -14.3690 C.3   500  GLN500      0.0905
     93  CD        12.5900  -23.7140  -14.4400 C.2   500  GLN500      0.2608
     94  OE1       13.2200  -23.0670  -15.2840 O.2   500  GLN500     -0.2717
     95  NE2       11.8040  -23.1170  -13.5390 N.am  500  GLN500     -0.0878
@<TRIPOS>BOND
     1    12    13    1
     2    16    13    1
     3    16    17    1
     4    13    14    1
     5    17    18   ar
     6    17    19   ar
     7    18    20   ar
     8    90    89    2
     9    19    21   ar
    10    14    15    2
    11    14    23   am
    12    20    22   ar
    13    21    22   ar
    14    89    88    1
    15    39    38   ar
    16    23    24    1
    17     4     3    2
    18    88    91    1
    19    88    87    1
    20    38    37    1
    21    38    40   ar
    22     3     2    1
    23    91    92    1
    24    62    61    1
    25    62    56    1
    26    94    93    2
    27    51    50    2
    28    37    36    1
    29    24    27    1
    30    24    25    1
    31    61    60    1
    32     1     2    1
    33    36    33    1
    34    28    25   am
    35    28    29    1
    36    93    92    1
    37    93    95   am
    38     2     5    1
    39    50    56   am
    40    50    49    1
    41    33    32    1
    42    33    34    1
    43    56    57    1
    44    25    26    2
    45    32    30   am
    46    30    31    2
    47    30    29    1
    48    60    57    1
    49    55    53    1
    50     5     6    1
    51    57    58    1
    52    52    49    1
    53    52    53    1
    54    49    48    1
    55    53    54    1
    56    34    41   am
    57    34    35    2
    58    41    42    1
    59    48    43   am
    60     6     7    1
    61    63    58   am
    62    63    64    1
    63    46    45    1
    64    58    59    2
    65    64    65    1
    66    66    65    2
    67    43    42    1
    68    43    44    2
    69    42    45    1
    70     7     8    1
    71    45    47    1
    72    65    67   am
    73    10     9    1
    74    82    81    2
    75    81    80    1
    76     8     9    2
    77     9    11    1
    78    67    68    1
    79    83    80    1
    80    83    84    1
    81    80    79    1
    82    79    69   am
    83    69    68    1
    84    69    70    2
    85    68    71    1
    86    86    84   am
    87    84    85    2
    88    73    75   ar
    89    73    72   ar
    90    75    77   ar
    91    71    72    1
    92    72    74   ar
    93    77    78    1
    94    77    76   ar
    95    74    76   ar
