@<TRIPOS>MOLECULE
tmp/1gpeA02.pdb
 115 111 0 0 0
SMALL
GASTEIGER

@<TRIPOS>ATOM
      1  N         17.4520  -21.7790  -35.8170 N.3   200  LEU200     -0.1231
      2  CA        16.0600  -22.1450  -35.9720 C.3   200  LEU200      0.1693
      3  C         15.4230  -21.5350  -37.2170 C.2   200  LEU200      0.2593
      4  O         14.2390  -21.7610  -37.4650 O.2   200  LEU200     -0.2718
      5  CB        15.2600  -21.7380  -34.7290 C.3   200  LEU200      0.0284
      6  CG        15.8810  -22.1010  -33.3740 C.3   200  LEU200      0.0019
      7  CD1       15.0550  -21.5060  -32.2400 C.3   200  LEU200      0.0001
      8  CD2       15.9800  -23.6100  -33.2170 C.3   200  LEU200      0.0001
      9  N         16.1740  -20.7520  -37.9810 N.am  201  GLY201     -0.1942
     10  CA        15.6840  -20.1750  -39.2170 C.3   201  GLY201      0.2014
     11  C         15.0630  -18.8000  -38.9950 C.2   201  GLY201      0.2639
     12  O         14.4000  -18.2650  -39.8770 O.2   201  GLY201     -0.2714
     13  N         15.2790  -18.2500  -37.8090 N.am  202  VAL202     -0.1963
     14  CA        14.7490  -16.9220  -37.5000 C.3   202  VAL202      0.1712
     15  C         15.7330  -15.8790  -38.0140 C.2   202  VAL202      0.2458
     16  O         16.9370  -16.0280  -37.8150 O.2   202  VAL202     -0.2730
     17  CB        14.5520  -16.7570  -35.9890 C.3   202  VAL202      0.0289
     18  CG1       14.1910  -15.3250  -35.6240 C.3   202  VAL202      0.0023
     19  CG2       13.5040  -17.7520  -35.5030 C.3   202  VAL202      0.0023
     20  N         15.2170  -14.8690  -38.6920 N.am  203  PRO203     -0.2727
     21  CA        16.0410  -13.7900  -39.1970 C.3   203  PRO203      0.1402
     22  C         16.7840  -13.1190  -38.0510 C.2   203  PRO203      0.2269
     23  O         16.3270  -13.0870  -36.9030 O.2   203  PRO203     -0.2865
     24  CB        15.0700  -12.8020  -39.8260 C.3   203  PRO203      0.0296
     25  CG        13.7600  -13.4920  -39.9030 C.3   203  PRO203      0.0237
     26  CD        13.7760  -14.6650  -38.9800 C.3   203  PRO203      0.0939
     27  N         11.6580   -8.0550  -37.8310 N.3   214  ARG214     -0.1245
     28  CA        11.5270   -9.4800  -37.6150 C.3   214  ARG214      0.1563
     29  C         12.8450  -10.0400  -37.0720 C.2   214  ARG214      0.2260
     30  O         13.8610   -9.5840  -37.5720 O.2   214  ARG214     -0.2867
     31  CB        11.2680  -10.1760  -38.9670 C.3   214  ARG214      0.0307
     32  CG         9.8630   -9.9630  -39.5230 C.3   214  ARG214      0.0489
     33  CD         8.8500  -10.7740  -38.7050 C.3   214  ARG214      0.2205
     34  NE         9.0840  -12.1840  -38.9860 N.pl3 214  ARG214     -0.0865
     35  CZ         9.6950  -13.0990  -38.2730 C.cat 214  ARG214      0.5346
     36  NH1       10.2070  -12.8710  -37.0660 N.pl3 214  ARG214      0.1354
     37  NH2        9.8110  -14.3260  -38.7870 N.pl3 214  ARG214      0.1354
     38  N          7.5060  -13.7080  -35.0590 N.3   357  ASN357     -0.1225
     39  CA         6.2480  -13.7260  -35.8120 C.3   357  ASN357      0.1785
     40  C          5.3510  -14.7630  -35.1550 C.2   357  ASN357      0.2597
     41  O          5.6630  -15.3460  -34.1180 O.2   357  ASN357     -0.2718
     42  CB         6.4600  -13.9930  -37.2880 C.3   357  ASN357      0.1169
     43  CG         6.8550  -15.4180  -37.5990 C.2   357  ASN357      0.2627
     44  OD1        7.0000  -16.2590  -36.7150 O.2   357  ASN357     -0.2716
     45  ND2        7.0320  -15.6480  -38.9030 N.am  357  ASN357     -0.0877
     46  N          4.2220  -15.0070  -35.7970 N.am  358  PHE358     -0.1962
     47  CA         3.2040  -15.9090  -35.2570 C.3   358  PHE358      0.1771
     48  C          3.7010  -17.3070  -34.9690 C.2   358  PHE358      0.2620
     49  O          3.5390  -17.8570  -33.8780 O.2   358  PHE358     -0.2715
     50  CB         2.0770  -15.9170  -36.3000 C.3   358  PHE358      0.0574
     51  CG         0.9730  -16.8720  -35.9630 C.ar  358  PHE358     -0.0200
     52  CD1       -0.0440  -16.4900  -35.1100 C.ar  358  PHE358     -0.0042
     53  CD2        0.9640  -18.1390  -36.5230 C.ar  358  PHE358     -0.0042
     54  CE1       -1.0610  -17.3850  -34.8080 C.ar  358  PHE358     -0.0003
     55  CE2       -0.0450  -19.0320  -36.2250 C.ar  358  PHE358     -0.0003
     56  CZ        -1.0510  -18.6380  -35.3700 C.ar  358  PHE358     -0.0000
     57  N          4.3210  -17.9400  -35.9650 N.am  359  THR359     -0.1937
     58  CA         4.8220  -19.3060  -35.7850 C.3   359  THR359      0.2028
     59  C          5.9800  -19.3950  -34.8080 C.2   359  THR359      0.2642
     60  O          6.0660  -20.3420  -34.0230 O.2   359  THR359     -0.2714
     61  CB         5.2630  -19.8660  -37.1560 C.3   359  THR359      0.1808
     62  OG1        4.1300  -19.6920  -38.0190 O.3   359  THR359     -0.2208
     63  CG2        5.6180  -21.3290  -37.0520 C.3   359  THR359      0.0379
     64  N          6.8770  -18.4060  -34.8550 N.am  360  GLU360     -0.1976
     65  CA         8.0010  -18.4130  -33.9150 C.3   360  GLU360      0.1602
     66  C          7.4850  -18.2760  -32.4840 C.2   360  GLU360      0.2287
     67  O          8.0300  -18.8860  -31.5640 O.2   360  GLU360     -0.2864
     68  CB         8.9550  -17.2470  -34.1970 C.3   360  GLU360      0.0415
     69  CG         9.6970  -17.4780  -35.5220 C.3   360  GLU360      0.1163
     70  CD        10.1850  -16.1720  -36.1000 C.2   360  GLU360      0.3649
     71  OE1        9.9120  -15.0810  -35.5510 O.co2 360  GLU360     -0.2457
     72  OE2       10.8740  -16.2190  -37.1410 O.co2 360  GLU360     -0.2457
     73  N         -3.6140  -20.8250  -34.9730 N.3   370  ARG370     -0.1245
     74  CA        -4.1240  -20.4730  -36.2910 C.3   370  ARG370      0.1563
     75  C         -5.6000  -20.8370  -36.3950 C.2   370  ARG370      0.2260
     76  O         -6.3980  -20.0570  -36.9200 O.2   370  ARG370     -0.2867
     77  CB        -3.2960  -21.1490  -37.3730 C.3   370  ARG370      0.0307
     78  CG        -3.7310  -20.7980  -38.7860 C.3   370  ARG370      0.0489
     79  CD        -2.9960  -21.7020  -39.7820 C.3   370  ARG370      0.2205
     80  NE        -1.6000  -21.2870  -39.8440 N.pl3 370  ARG370     -0.0865
     81  CZ        -1.0590  -20.4510  -40.7170 C.cat 370  ARG370      0.5346
     82  NH1       -1.7540  -19.8720  -41.6870 N.pl3 370  ARG370      0.1354
     83  NH2        0.2460  -20.2050  -40.5900 N.pl3 370  ARG370      0.1354
     84  N         -0.6710  -11.3120  -39.1160 N.3   407  LEU407     -0.1231
     85  CA        -0.0570  -12.4470  -38.4720 C.3   407  LEU407      0.1693
     86  C          0.1570  -13.6420  -39.3820 C.2   407  LEU407      0.2592
     87  O          1.2010  -14.2690  -39.3370 O.2   407  LEU407     -0.2718
     88  CB        -0.9050  -12.8860  -37.2610 C.3   407  LEU407      0.0284
     89  CG        -1.0630  -11.7540  -36.2170 C.3   407  LEU407      0.0019
     90  CD1       -1.9400  -12.2480  -35.0760 C.3   407  LEU407      0.0001
     91  CD2        0.3030  -11.3100  -35.7160 C.3   407  LEU407      0.0001
     92  N         -0.9040  -14.0070  -40.0970 N.am  408  LEU408     -0.1966
     93  CA        -0.8580  -15.2220  -40.8940 C.3   408  LEU408      0.1728
     94  C         -0.3660  -15.0090  -42.3070 C.2   408  LEU408      0.2616
     95  O          0.2350  -15.9410  -42.8480 O.2   408  LEU408     -0.2715
     96  CB        -2.2710  -15.8280  -40.9180 C.3   408  LEU408      0.0311
     97  CG        -2.8050  -16.2090  -39.5370 C.3   408  LEU408      0.0022
     98  CD1       -4.2140  -16.7780  -39.6660 C.3   408  LEU408      0.0001
     99  CD2       -1.8850  -17.1950  -38.8290 C.3   408  LEU408      0.0001
    100  N         -0.6260  -13.8630  -42.9170 N.am  409  ASP409     -0.1971
    101  CA        -0.2390  -13.6940  -44.3040 C.3   409  ASP409      0.1709
    102  C          0.9360  -12.7690  -44.5230 C.2   409  ASP409      0.2293
    103  O          1.5260  -12.8530  -45.6000 O.2   409  ASP409     -0.2864
    104  CB        -1.3860  -13.0970  -45.1510 C.3   409  ASP409      0.1436
    105  CG        -2.6580  -13.9070  -44.9470 C.2   409  ASP409      0.3671
    106  OD1       -2.5500  -15.1260  -44.7420 O.co2 409  ASP409     -0.2456
    107  OD2       -3.7410  -13.3070  -44.9780 O.co2 409  ASP409     -0.2456
    108  N          3.5930  -12.1300  -42.2460 N.3   411  ASP411     -0.1239
    109  CA         4.7970  -12.4130  -41.4720 C.3   411  ASP411      0.1674
    110  C          5.0900  -11.2610  -40.5250 C.2   411  ASP411      0.2266
    111  O          6.2310  -10.8540  -40.3390 O.2   411  ASP411     -0.2867
    112  CB         5.9660  -12.6350  -42.4540 C.3   411  ASP411      0.1410
    113  CG         7.2720  -13.0050  -41.7670 C.2   411  ASP411      0.3668
    114  OD1        7.2280  -13.7900  -40.8070 O.co2 411  ASP411     -0.2456
    115  OD2        8.3210  -12.4490  -42.1720 O.co2 411  ASP411     -0.2456
@<TRIPOS>BOND
     1   103   102    2
     2   104   105    1
     3   104   101    1
     4   107   105   ar
     5   105   106   ar
     6   102   101    1
     7   101   100    1
     8   100    94   am
     9    95    94    2
    10   112   113    1
    11   112   109    1
    12    94    93    1
    13   108   109    1
    14   115   113   ar
    15   113   114   ar
    16    82    81    1
    17   109   110    1
    18    96    93    1
    19    96    97    1
    20    93    92    1
    21    81    83    1
    22    81    80    2
    23   110   111    2
    24    92    86   am
    25    25    24    1
    26    25    26    1
    27    12    11    2
    28    80    79    1
    29    24    21    1
    30    79    78    1
    31    98    97    1
    32    97    99    1
    33    32    31    1
    34    32    33    1
    35    86    87    2
    36    86    85    1
    37    10    11    1
    38    10     9    1
    39    21    20    1
    40    21    22    1
    41    84    85    1
    42    11    13   am
    43    34    33    1
    44    34    35    2
    45    26    20    1
    46    31    28    1
    47    45    43   am
    48    37    35    1
    49    78    77    1
    50    20    15   am
    51    85    88    1
    52    35    36    1
    53    22    23    2
    54    62    61    1
    55    15    16    2
    56    15    14    1
    57     9     3   am
    58    27    28    1
    59    13    14    1
    60    28    29    1
    61    43    42    1
    62    43    44    2
    63    30    29    2
    64    14    17    1
    65     4     3    2
    66    77    74    1
    67    42    39    1
    68    88    89    1
    69     3     2    1
    70    61    63    1
    71    61    58    1
    72    72    70   ar
    73    76    75    2
    74    53    55   ar
    75    53    51   ar
    76    75    74    1
    77    50    51    1
    78    50    47    1
    79    74    73    1
    80    55    56   ar
    81    89    91    1
    82    89    90    1
    83    70    71   ar
    84    70    69    1
    85    17    18    1
    86    17    19    1
    87     2     1    1
    88     2     5    1
    89    57    58    1
    90    57    48   am
    91    51    52   ar
    92    39    40    1
    93    39    38    1
    94    46    47    1
    95    46    40   am
    96    58    59    1
    97    69    68    1
    98    56    54   ar
    99    47    48    1
   100    40    41    2
   101    52    54   ar
   102    48    49    2
   103    64    59   am
   104    64    65    1
   105    59    60    2
   106     5     6    1
   107    68    65    1
   108    65    66    1
   109     6     8    1
   110     6     7    1
   111    66    67    2
