@<TRIPOS>MOLECULE
tmp/1gphD02.pdb
 107 106 0 0 0
SMALL
GASTEIGER

@<TRIPOS>ATOM
      1  N         97.1330   24.1650   32.5980 N.3    25  HIS25      -0.1241
      2  CA        96.2390   25.2970   32.3930 C.3    25  HIS25       0.1621
      3  C         96.1330   26.1730   33.6340 C.2    25  HIS25       0.2264
      4  O         95.6790   27.3200   33.5450 O.2    25  HIS25      -0.2867
      5  CB        94.8280   24.8190   32.0000 C.3    25  HIS25       0.0745
      6  CG        94.1390   23.9310   33.0320 C.ar   25  HIS25       0.0817
      7  ND1       94.6990   22.8150   33.4640 N.ar   25  HIS25      -0.2268
      8  CD2       92.9780   24.2140   33.6790 C.ar   25  HIS25       0.1154
      9  CE1       93.8920   22.3720   34.4040 C.ar   25  HIS25       0.1986
     10  NE2       92.8830   23.2120   34.5200 N.ar   25  HIS25      -0.2212
     11  N         85.1370   28.2500   35.8420 N.3   242  TYR242     -0.1227
     12  CA        86.0960   28.6640   34.8310 C.3   242  TYR242      0.1736
     13  C         87.4160   27.9840   35.0600 C.2   242  TYR242      0.2595
     14  O         88.0220   27.5820   34.0830 O.2   242  TYR242     -0.2718
     15  CB        86.2870   30.1910   34.9070 C.3   242  TYR242      0.0548
     16  CG        87.5580   30.7100   34.2550 C.ar  242  TYR242     -0.0200
     17  CD1       87.6900   30.6710   32.8670 C.ar  242  TYR242     -0.0009
     18  CD2       88.6160   31.1380   35.0480 C.ar  242  TYR242     -0.0009
     19  CE1       88.8880   31.0450   32.2640 C.ar  242  TYR242      0.0417
     20  CE2       89.8150   31.5100   34.4540 C.ar  242  TYR242      0.0417
     21  CZ        89.9500   31.4580   33.0680 C.ar  242  TYR242      0.1957
     22  OH        91.1540   31.7750   32.4580 O.3   242  TYR242     -0.2866
     23  N         87.9110   27.8010   36.2860 N.am  243  PHE243     -0.1962
     24  CA        89.3070   27.4270   36.4130 C.3   243  PHE243      0.1771
     25  C         89.6860   25.9800   36.1610 C.2   243  PHE243      0.2620
     26  O         90.7540   25.7130   35.5890 O.2   243  PHE243     -0.2715
     27  CB        89.8000   27.8550   37.7800 C.3   243  PHE243      0.0574
     28  CG        91.3090   28.0670   37.7790 C.ar  243  PHE243     -0.0200
     29  CD1       91.8620   29.1860   37.1450 C.ar  243  PHE243     -0.0042
     30  CD2       92.1700   27.1550   38.4060 C.ar  243  PHE243     -0.0042
     31  CE1       93.2550   29.3930   37.1310 C.ar  243  PHE243     -0.0003
     32  CE2       93.5630   27.3680   38.3920 C.ar  243  PHE243     -0.0003
     33  CZ        94.1090   28.4860   37.7540 C.ar  243  PHE243     -0.0000
     34  N         88.8490   25.0240   36.5390 N.am  244  SER244     -0.1936
     35  CA        89.2190   23.6280   36.3640 C.3   244  SER244      0.2055
     36  C         88.9740   23.0930   34.9620 C.2   244  SER244      0.2643
     37  O         88.1090   23.5830   34.2370 O.2   244  SER244     -0.2714
     38  CB        88.4660   22.7900   37.3850 C.3   244  SER244      0.2130
     39  OG        89.1110   22.9530   38.6400 O.3   244  SER244     -0.2179
     40  N         89.7580   22.1000   34.5410 N.am  245  ARG245     -0.1963
     41  CA        89.5770   21.4860   33.2390 C.3   245  ARG245      0.1714
     42  C         88.2560   20.7220   33.2720 C.2   245  ARG245      0.2458
     43  O         87.9390   20.1590   34.3340 O.2   245  ARG245     -0.2730
     44  CB        90.6920   20.5270   32.9900 C.3   245  ARG245      0.0347
     45  CG        91.4010   20.7090   31.6990 C.3   245  ARG245      0.0492
     46  CD        91.5920   19.2860   31.4040 C.3   245  ARG245      0.2205
     47  NE        92.9150   18.8860   31.0360 N.pl3 245  ARG245     -0.0865
     48  CZ        93.2660   17.6000   31.0390 C.cat 245  ARG245      0.5346
     49  NH1       92.4610   16.6000   31.3850 N.pl3 245  ARG245      0.1354
     50  NH2       94.4800   17.3110   30.6040 N.pl3 245  ARG245      0.1354
     51  N         87.4870   20.6040   32.1870 N.am  246  PRO246     -0.2727
     52  CA        86.1570   20.0290   32.1890 C.3   246  PRO246      0.1402
     53  C         85.9770   18.6040   32.6640 C.2   246  PRO246      0.2269
     54  O         84.8850   18.1920   33.0810 O.2   246  PRO246     -0.2865
     55  CB        85.7200   20.2380   30.7920 C.3   246  PRO246      0.0296
     56  CG        86.3090   21.5740   30.4710 C.3   246  PRO246      0.0237
     57  CD        87.7150   21.3120   30.9460 C.3   246  PRO246      0.0939
     58  N         78.9660   22.8560   34.6060 N.3   259  ARG259     -0.1245
     59  CA        78.9980   23.9980   33.7250 C.3   259  ARG259      0.1563
     60  C         77.8370   23.9270   32.7330 C.2   259  ARG259      0.2260
     61  O         77.2050   24.9360   32.4050 O.2   259  ARG259     -0.2867
     62  CB        80.3310   24.0050   32.9890 C.3   259  ARG259      0.0307
     63  CG        81.4970   24.3650   33.8860 C.3   259  ARG259      0.0489
     64  CD        82.8690   24.4850   33.1930 C.3   259  ARG259      0.2205
     65  NE        83.8640   24.7870   34.2130 N.pl3 259  ARG259     -0.0865
     66  CZ        85.1420   25.0610   33.9930 C.cat 259  ARG259      0.5346
     67  NH1       85.6200   25.0660   32.7460 N.pl3 259  ARG259      0.1354
     68  NH2       85.9450   25.3210   35.0360 N.pl3 259  ARG259      0.1354
     69  N         85.4370   29.9520   22.8430 N.3   281  PRO281     -0.2102
     70  CA        86.5060   28.9650   22.9470 C.3   281  PRO281      0.1504
     71  C         87.5170   29.0110   24.0980 C.2   281  PRO281      0.2576
     72  O         88.2770   29.9230   24.4610 O.2   281  PRO281     -0.2718
     73  CB        87.1510   28.9990   21.5860 C.3   281  PRO281      0.0282
     74  CG        85.9110   29.0170   20.7620 C.3   281  PRO281      0.0208
     75  CD        85.1660   30.1740   21.4300 C.3   281  PRO281      0.0893
     76  N         87.1210   27.8610   24.6500 N.am  282  ASP282     -0.1960
     77  CA        87.4970   27.1250   25.8120 C.3   282  ASP282      0.1840
     78  C         86.7550   27.5440   27.0350 C.2   282  ASP282      0.2622
     79  O         86.0730   26.6130   27.4730 O.2   282  ASP282     -0.2715
     80  CB        88.9990   27.1680   25.9160 C.3   282  ASP282      0.1450
     81  CG        89.5820   26.1500   24.9250 C.2   282  ASP282      0.3671
     82  OD1       88.8740   25.4060   24.2430 O.co2 282  ASP282     -0.2456
     83  OD2       90.7900   26.0660   24.8250 O.co2 282  ASP282     -0.2456
     84  N         86.6410   28.8080   27.4720 N.am  283  SER283     -0.1950
     85  CA        85.9470   29.0640   28.7240 C.3   283  SER283      0.1924
     86  C         84.4500   28.7270   28.7790 C.2   283  SER283      0.2314
     87  O         84.0640   27.9030   29.6180 O.2   283  SER283     -0.2863
     88  CB        86.2160   30.5300   29.1280 C.3   283  SER283      0.2116
     89  OG        85.7160   31.7230   28.5140 O.3   283  SER283     -0.2180
     90  N         89.1670   30.1600   18.2750 N.3   305  LYS305     -0.1245
     91  CA        90.3520   30.6090   18.9920 C.3   305  LYS305      0.1561
     92  C         91.6300   30.1050   18.3050 C.2   305  LYS305      0.2260
     93  O         91.7790   28.8850   18.0910 O.2   305  LYS305     -0.2867
     94  CB        90.2620   30.0770   20.3980 C.3   305  LYS305      0.0271
     95  CG        91.4660   30.2590   21.3000 C.3   305  LYS305      0.0035
     96  CD        91.1350   29.6970   22.6670 C.3   305  LYS305      0.0206
     97  CE        92.3910   29.4970   23.4590 C.3   305  LYS305      0.1093
     98  NZ        92.1840   28.4890   24.4760 N.3   305  LYS305     -0.1314
     99  N         93.6550   36.4810   19.1520 N.3   328  LYS328     -0.1197
    100  CA        93.4620   35.0750   19.5480 C.3   328  LYS328      0.1778
    101  C         92.0620   34.5320   19.2590 C.2   328  LYS328      0.2305
    102  O         91.8260   33.3260   19.2420 O.2   328  LYS328     -0.2863
    103  CB        93.7750   34.9260   21.0520 C.2   328  LYS328     -0.0042
    104  CG        93.5330   33.5390   21.6510 C.2   328  LYS328     -0.0273
    105  CD        93.4280   33.4770   23.1760 C.3   328  LYS328      0.0462
    106  CE        94.7460   33.8160   23.8900 C.3   328  LYS328      0.1140
    107  NZ        94.8460   33.1390   25.1750 N.3   328  LYS328     -0.1310
@<TRIPOS>BOND
     1    93    92    2
     2    90    91    1
     3    92    91    1
     4    91    94    1
     5    99   100    1
     6   102   101    2
     7   101   100    1
     8   100   103    1
     9    94    95    1
    10    74    75    1
    11    74    73    1
    12   103   104    2
    13    95    96    1
    14    75    69    1
    15    73    70    1
    16   104   105    1
    17    96    97    1
    18    69    70    1
    19    70    71    1
    20   105   106    1
    21    97    98    1
    22   106   107    1
    23    71    72    2
    24    71    76   am
    25    82    81   ar
    26    76    77    1
    27    83    81   ar
    28    81    80    1
    29    77    80    1
    30    77    78    1
    31    78    84   am
    32    78    79    2
    33    84    85    1
    34    89    88    1
    35    85    86    1
    36    85    88    1
    37    86    87    2
    38    56    55    1
    39    56    57    1
    40    50    48    1
    41    55    52    1
    42    57    51    1
    43    47    48    2
    44    47    46    1
    45    48    49    1
    46    46    45    1
    47    45    44    1
    48     5     2    1
    49     5     6    1
    50    51    52    1
    51    51    42   am
    52    52    53    1
    53    19    17   ar
    54    19    21   ar
    55     2     1    1
    56     2     3    1
    57    61    60    2
    58    22    21    1
    59    53    54    2
    60    60    59    1
    61    67    66    1
    62    17    16   ar
    63    62    59    1
    64    62    63    1
    65    44    41    1
    66     6     7   ar
    67     6     8   ar
    68    21    20   ar
    69    64    63    1
    70    64    65    1
    71    41    42    1
    72    41    40    1
    73    42    43    2
    74     7     9   ar
    75     4     3    2
    76     8    10   ar
    77    59    58    1
    78    66    65    2
    79    66    68    1
    80    14    13    2
    81    37    36    2
    82    16    15    1
    83    16    18   ar
    84     9    10   ar
    85    20    18   ar
    86    40    36   am
    87    12    15    1
    88    12    13    1
    89    12    11    1
    90    36    35    1
    91    13    23   am
    92    26    25    2
    93    25    24    1
    94    25    34   am
    95    23    24    1
    96    35    34    1
    97    35    38    1
    98    24    27    1
    99    31    29   ar
   100    31    33   ar
   101    29    28   ar
   102    38    39    1
   103    33    32   ar
   104    28    27    1
   105    28    30   ar
   106    32    30   ar
