@<TRIPOS>MOLECULE
tmp/1gphD01.pdb
 146 141 0 0 0
SMALL
GASTEIGER

@<TRIPOS>ATOM
      1  N        101.3260   30.2580   38.5360 N.3    73  TYR73      -0.1241
      2  CA       100.6950   31.3950   37.8850 C.3    73  TYR73       0.1605
      3  C        101.4970   32.6520   38.2090 C.2    73  TYR73       0.2264
      4  O        102.1750   32.6730   39.2330 O.2    73  TYR73      -0.2867
      5  CB        99.2940   31.4990   38.4390 C.3    73  TYR73       0.0534
      6  CG        98.2960   32.3830   37.6980 C.ar   73  TYR73      -0.0201
      7  CD1       98.2730   33.7730   37.8770 C.ar   73  TYR73      -0.0009
      8  CD2       97.3500   31.7660   36.8680 C.ar   73  TYR73      -0.0009
      9  CE1       97.3040   34.5390   37.2290 C.ar   73  TYR73       0.0417
     10  CE2       96.3810   32.5250   36.2240 C.ar   73  TYR73       0.0417
     11  CZ        96.3660   33.9000   36.4130 C.ar   73  TYR73       0.1957
     12  OH        95.3810   34.6330   35.8050 O.3    73  TYR73      -0.2866
     13  N         84.5700   29.6290   41.4400 N.3   238  MET238     -0.1245
     14  CA        85.1770   29.7550   40.1260 C.3   238  MET238      0.1570
     15  C         85.8740   28.4800   39.6750 C.2   238  MET238      0.2261
     16  O         86.0510   28.2690   38.4780 O.2   238  MET238     -0.2867
     17  CB        86.1930   30.8840   40.1040 C.3   238  MET238      0.0387
     18  CG        85.5840   32.2540   40.3620 C.3   238  MET238      0.0595
     19  SD        84.3320   32.7340   39.1380 S.3   238  MET238     -0.1393
     20  CE        85.3520   32.8370   37.6900 C.3   238  MET238      0.0692
     21  N         85.1370   28.2500   35.8420 N.3   242  TYR242     -0.1241
     22  CA        86.0960   28.6640   34.8310 C.3   242  TYR242      0.1605
     23  C         87.4160   27.9840   35.0600 C.2   242  TYR242      0.2264
     24  O         88.0220   27.5820   34.0830 O.2   242  TYR242     -0.2867
     25  CB        86.2870   30.1910   34.9070 C.3   242  TYR242      0.0534
     26  CG        87.5580   30.7100   34.2550 C.ar  242  TYR242     -0.0201
     27  CD1       87.6900   30.6710   32.8670 C.ar  242  TYR242     -0.0009
     28  CD2       88.6160   31.1380   35.0480 C.ar  242  TYR242     -0.0009
     29  CE1       88.8880   31.0450   32.2640 C.ar  242  TYR242      0.0417
     30  CE2       89.8150   31.5100   34.4540 C.ar  242  TYR242      0.0417
     31  CZ        89.9500   31.4580   33.0680 C.ar  242  TYR242      0.1957
     32  OH        91.1540   31.7750   32.4580 O.3   242  TYR242     -0.2866
     33  N         86.6410   28.8080   27.4720 N.3   283  SER283     -0.1217
     34  CA        85.9470   29.0640   28.7240 C.3   283  SER283      0.1889
     35  C         84.4500   28.7270   28.7790 C.2   283  SER283      0.2288
     36  O         84.0640   27.9030   29.6180 O.2   283  SER283     -0.2866
     37  CB        86.2160   30.5300   29.1280 C.3   283  SER283      0.2089
     38  OG        85.7160   31.7230   28.5140 O.3   283  SER283     -0.2183
     39  N         79.0100   33.3360   27.9270 N.3   345  ASP345     -0.1225
     40  CA        80.4120   33.4370   28.3730 C.3   345  ASP345      0.1805
     41  C         80.3310   33.1140   29.8580 C.2   345  ASP345      0.2598
     42  O         79.3130   33.3270   30.5180 O.2   345  ASP345     -0.2718
     43  CB        81.0330   34.8450   28.1770 C.3   345  ASP345      0.1424
     44  CG        82.5640   34.9880   28.3660 C.2   345  ASP345      0.3668
     45  OD1       83.3020   33.9940   28.4420 O.co2 345  ASP345     -0.2456
     46  OD2       83.0270   36.1400   28.4620 O.co2 345  ASP345     -0.2456
     47  N         81.3720   32.5550   30.4450 N.am  346  ASP346     -0.1960
     48  CA        81.3200   32.0930   31.8300 C.3   346  ASP346      0.1840
     49  C         81.3790   33.2520   32.8070 C.2   346  ASP346      0.2623
     50  O         80.8300   33.0450   33.8790 O.2   346  ASP346     -0.2715
     51  CB        82.4820   31.0980   32.1120 C.3   346  ASP346      0.1450
     52  CG        83.8530   31.7630   32.0140 C.2   346  ASP346      0.3671
     53  OD1       84.2490   32.1640   30.9070 O.co2 346  ASP346     -0.2456
     54  OD2       84.5000   31.9340   33.0510 O.co2 346  ASP346     -0.2456
     55  N         81.9690   34.4230   32.5490 N.am  347  SER347     -0.1936
     56  CA        82.0170   35.5240   33.5100 C.3   347  SER347      0.2055
     57  C         82.4930   36.8370   32.8970 C.2   347  SER347      0.2643
     58  O         83.0790   36.8310   31.8130 O.2   347  SER347     -0.2714
     59  CB        82.9510   35.1800   34.6660 C.3   347  SER347      0.2130
     60  OG        84.1290   34.5730   34.1660 O.3   347  SER347     -0.2179
     61  N         82.2330   37.9950   33.5170 N.am  348  ILE348     -0.1963
     62  CA        82.7680   39.2910   33.0710 C.3   348  ILE348      0.1727
     63  C         83.5510   39.6820   34.3270 C.2   348  ILE348      0.2616
     64  O         83.0070   39.6190   35.4510 O.2   348  ILE348     -0.2715
     65  CB        81.6570   40.3630   32.7980 C.3   348  ILE348      0.0290
     66  CG1       80.8070   39.8590   31.6400 C.3   348  ILE348      0.0022
     67  CG2       82.2620   41.7590   32.5610 C.3   348  ILE348      0.0023
     68  CD1       79.7480   40.8620   31.1050 C.3   348  ILE348      0.0001
     69  N         84.8360   39.9770   34.1650 N.am  349  VAL349     -0.1963
     70  CA        85.6260   40.3820   35.3060 C.3   349  VAL349      0.1727
     71  C         85.9140   41.8560   35.0110 C.2   349  VAL349      0.2616
     72  O         85.2890   42.7270   35.6000 O.2   349  VAL349     -0.2715
     73  CB        86.8480   39.4040   35.3330 C.3   349  VAL349      0.0290
     74  CG1       87.8060   39.7540   36.4740 C.3   349  VAL349      0.0023
     75  CG2       86.3440   37.9650   35.5060 C.3   349  VAL349      0.0023
     76  N         86.7970   42.1770   34.0590 N.am  350  ARG350     -0.1963
     77  CA        87.0260   43.5410   33.6030 C.3   350  ARG350      0.1729
     78  C         86.0100   44.0770   32.5780 C.2   350  ARG350      0.2617
     79  O         85.8530   45.2950   32.4750 O.2   350  ARG350     -0.2715
     80  CB        88.3520   43.6940   32.9270 C.3   350  ARG350      0.0348
     81  CG        89.5680   43.1140   33.5960 C.3   350  ARG350      0.0492
     82  CD        90.6900   43.0370   32.5250 C.3   350  ARG350      0.2205
     83  NE        90.4200   42.1490   31.3760 N.pl3 350  ARG350     -0.0865
     84  CZ        91.2600   41.9790   30.3430 C.cat 350  ARG350      0.5346
     85  NH1       92.4230   42.6300   30.2890 N.pl3 350  ARG350      0.1354
     86  NH2       90.9500   41.1290   29.3620 N.pl3 350  ARG350      0.1354
     87  N         85.2870   43.2870   31.7620 N.am  351  GLY351     -0.1940
     88  CA        84.4000   43.8510   30.7390 C.3   351  GLY351      0.2014
     89  C         85.0490   43.8450   29.3320 C.2   351  GLY351      0.2640
     90  O         84.3450   43.7080   28.3210 O.2   351  GLY351     -0.2714
     91  N         86.3890   43.9880   29.2370 N.am  352  THR352     -0.1936
     92  CA        87.1930   43.9180   28.0170 C.3   352  THR352      0.2028
     93  C         86.8950   42.7900   27.0260 C.2   352  THR352      0.2643
     94  O         86.5010   43.1030   25.8980 O.2   352  THR352     -0.2714
     95  CB        88.6510   43.8600   28.4680 C.3   352  THR352      0.1808
     96  OG1       88.8660   45.0160   29.2830 O.3   352  THR352     -0.2208
     97  CG2       89.6300   43.8220   27.3140 C.3   352  THR352      0.0379
     98  N         87.0820   41.5070   27.3350 N.am  353  THR353     -0.1936
     99  CA        86.7800   40.4760   26.3650 C.3   353  THR353      0.2028
    100  C         85.3550   40.4710   25.7680 C.2   353  THR353      0.2642
    101  O         85.2150   40.4510   24.5440 O.2   353  THR353     -0.2714
    102  CB        87.1200   39.1850   27.0570 C.3   353  THR353      0.1808
    103  OG1       88.4410   39.3390   27.5520 O.3   353  THR353     -0.2208
    104  CG2       87.1130   38.0100   26.1460 C.3   353  THR353      0.0379
    105  N         84.2530   40.5380   26.5210 N.am  354  SER354     -0.1949
    106  CA        82.8810   40.5760   25.9980 C.3   354  SER354      0.1924
    107  C         82.6100   41.7420   25.0350 C.2   354  SER354      0.2314
    108  O         81.8750   41.6010   24.0560 O.2   354  SER354     -0.2863
    109  CB        81.9310   40.6450   27.2010 C.3   354  SER354      0.2116
    110  OG        82.4420   39.9630   28.3530 O.3   354  SER354     -0.2180
    111  N         80.8860   39.9900   39.1620 N.3   378  ILE378     -0.1245
    112  CA        81.9710   39.7770   40.0800 C.3   378  ILE378      0.1561
    113  C         82.3450   41.1860   40.4750 C.2   378  ILE378      0.2260
    114  O         82.9380   42.0010   39.7480 O.2   378  ILE378     -0.2867
    115  CB        83.1330   39.0080   39.3700 C.3   378  ILE378      0.0252
    116  CG1       82.6720   37.6100   38.9260 C.3   378  ILE378      0.0019
    117  CG2       84.3140   38.9320   40.3260 C.3   378  ILE378      0.0019
    118  CD1       83.7340   36.5950   38.4710 C.3   378  ILE378      0.0001
    119  N         95.9180   33.3240   40.7770 N.3   387  ASP387     -0.1225
    120  CA        95.1210   32.7630   39.7140 C.3   387  ASP387      0.1805
    121  C         93.6810   33.1960   39.7160 C.2   387  ASP387      0.2598
    122  O         93.1430   33.4620   38.6400 O.2   387  ASP387     -0.2718
    123  CB        95.1900   31.2300   39.7460 C.3   387  ASP387      0.1424
    124  CG        95.0870   30.4750   41.0690 C.2   387  ASP387      0.3668
    125  OD1       94.9720   31.0940   42.1270 O.co2 387  ASP387     -0.2456
    126  OD2       95.1310   29.2430   41.0370 O.co2 387  ASP387     -0.2456
    127  N         93.0800   33.2970   40.9090 N.am  388  THR388     -0.1939
    128  CA        91.6840   33.7130   41.0630 C.3   388  THR388      0.2028
    129  C         91.4620   35.2150   41.2240 C.2   388  THR388      0.2643
    130  O         90.3200   35.6470   41.4210 O.2   388  THR388     -0.2714
    131  CB        91.0410   33.0150   42.2850 C.3   388  THR388      0.1808
    132  OG1       91.9630   33.0980   43.3880 O.3   388  THR388     -0.2208
    133  CG2       90.6140   31.6020   41.9270 C.3   388  THR388      0.0379
    134  N         92.5410   36.0140   41.1980 N.am  389  SER389     -0.1935
    135  CA        92.4390   37.4580   41.3960 C.3   389  SER389      0.2055
    136  C         92.6660   38.1790   40.0570 C.2   389  SER389      0.2643
    137  O         92.8690   37.5330   39.0180 O.2   389  SER389     -0.2714
    138  CB        93.5120   37.9490   42.3990 C.3   389  SER389      0.2130
    139  OG        93.5860   37.2180   43.6090 O.3   389  SER389     -0.2179
    140  N         92.5990   39.5210   40.0680 N.am  390  THR390     -0.1950
    141  CA        93.0660   40.3630   38.9790 C.3   390  THR390      0.1897
    142  C         93.4140   41.6850   39.6690 C.2   390  THR390      0.2313
    143  O         92.8460   42.1050   40.6840 O.2   390  THR390     -0.2863
    144  CB        91.9800   40.5650   37.8680 C.3   390  THR390      0.1794
    145  OG1       92.6970   41.0930   36.7360 O.3   390  THR390     -0.2208
    146  CG2       90.7910   41.4320   38.3070 C.3   390  THR390      0.0378
@<TRIPOS>BOND
     1   108   107    2
     2   101   100    2
     3   107   106    1
     4   100    99    1
     5   100   105   am
     6    94    93    2
     7   106   105    1
     8   106   109    1
     9   104   102    1
    10    99   102    1
    11    99    98    1
    12    93    98   am
    13    93    92    1
    14   102   103    1
    15   109   110    1
    16    97    95    1
    17    33    34    1
    18    39    40    1
    19    92    95    1
    20    92    91    1
    21    43    44    1
    22    43    40    1
    23    90    89    2
    24    44    45   ar
    25    44    46   ar
    26    40    41    1
    27    95    96    1
    28    38    37    1
    29    34    35    1
    30    34    37    1
    31    35    36    2
    32    91    89   am
    33    89    88    1
    34    86    84    1
    35    41    47   am
    36    41    42    2
    37    85    84    1
    38    84    83    2
    39    47    48    1
    40    88    87    1
    41    53    52   ar
    42    68    66    1
    43    83    82    1
    44    66    65    1
    45    87    78   am
    46    58    57    2
    47    48    51    1
    48    48    49    1
    49    52    51    1
    50    52    54   ar
    51    29    27   ar
    52    29    31   ar
    53    32    31    1
    54    79    78    2
    55    82    81    1
    56    55    49   am
    57    55    56    1
    58    67    65    1
    59    78    77    1
    60    65    62    1
    61    49    50    2
    62    27    26   ar
    63    57    56    1
    64    57    61   am
    65    80    81    1
    66    80    77    1
    67    31    30   ar
    68    62    61    1
    69    62    63    1
    70    56    59    1
    71    77    76    1
    72    76    71   am
    73    24    23    2
    74    69    63   am
    75    69    70    1
    76    60    59    1
    77    26    25    1
    78    26    28   ar
    79    63    64    2
    80    30    28   ar
    81    22    25    1
    82    22    23    1
    83    22    21    1
    84    71    70    1
    85    71    72    2
    86    70    73    1
    87    73    75    1
    88    73    74    1
    89    12    11    1
    90    10    11   ar
    91    10     8   ar
    92    11     9   ar
    93   145   144    1
    94     8     6   ar
    95     9     7   ar
    96    20    19    1
    97     6     7   ar
    98     6     5    1
    99   144   146    1
   100   144   141    1
   101     2     3    1
   102     2     5    1
   103     2     1    1
   104     3     4    2
   105   118   116    1
   106    16    15    2
   107   122   121    2
   108   116   115    1
   109   141   142    1
   110   141   140    1
   111   137   136    2
   112    19    18    1
   113   111   112    1
   114   115   112    1
   115   115   117    1
   116   142   143    2
   117    15    14    1
   118   120   121    1
   119   120   123    1
   120   120   119    1
   121   121   127   am
   122   123   124    1
   123   114   113    2
   124   136   140   am
   125   136   135    1
   126   112   113    1
   127    17    14    1
   128    17    18    1
   129    14    13    1
   130   127   128    1
   131   126   124   ar
   132   128   129    1
   133   128   131    1
   134   124   125   ar
   135   134   129   am
   136   134   135    1
   137   129   130    2
   138   135   138    1
   139   133   131    1
   140   131   132    1
   141   138   139    1
