@<TRIPOS>MOLECULE
tmp/1gpjA00.pdb
 99 94 0 0 0
SMALL
GASTEIGER

@<TRIPOS>ATOM
      1  N         65.8930   57.7820   56.0110 N.3    11  HIS11      -0.1241
      2  CA        66.1750   58.2360   57.3650 C.3    11  HIS11       0.1621
      3  C         64.9860   58.9760   57.9680 C.2    11  HIS11       0.2264
      4  O         64.9650   59.1690   59.1560 O.2    11  HIS11      -0.2867
      5  CB        67.3470   59.1730   57.3120 C.3    11  HIS11       0.0745
      6  CG        66.9970   60.5130   56.7500 C.ar   11  HIS11       0.0817
      7  ND1       66.7240   61.6030   57.5500 N.ar   11  HIS11      -0.2268
      8  CD2       66.8400   60.9250   55.4720 C.ar   11  HIS11       0.1154
      9  CE1       66.4560   62.6440   56.7810 C.ar   11  HIS11       0.1986
     10  NE2       66.5340   62.2610   55.5140 N.ar   11  HIS11      -0.2212
     11  N         71.7610   55.7450   49.2210 N.3    47  THR47      -0.1203
     12  CA        72.7780   56.5140   49.9280 C.3    47  THR47       0.1994
     13  C         72.7570   56.0530   51.3750 C.2    47  THR47       0.2619
     14  O         71.9070   55.2930   51.7500 O.2    47  THR47      -0.2717
     15  CB        72.4420   57.9960   49.9230 C.3    47  THR47       0.1784
     16  OG1       71.3150   58.2430   50.7850 O.3    47  THR47      -0.2211
     17  CG2       72.0400   58.4880   48.5400 C.3    47  THR47       0.0376
     18  N         73.6470   56.5860   52.2070 N.am   48  SER48      -0.1937
     19  CA        73.6100   56.2480   53.6360 C.3    48  SER48       0.2055
     20  C         72.2390   56.5590   54.2660 C.2    48  SER48       0.2643
     21  O         71.9020   55.9790   55.2780 O.2    48  SER48      -0.2714
     22  CB        74.7280   57.0050   54.3780 C.3    48  SER48       0.2130
     23  OG        74.5130   58.4180   54.2920 O.3    48  SER48      -0.2179
     24  N         71.4300   57.4350   53.6510 N.am   49  ASN49      -0.1957
     25  CA        70.1750   57.8890   54.2680 C.3    49  ASN49       0.1819
     26  C         68.8820   57.4820   53.5380 C.2    49  ASN49       0.2621
     27  O         67.7940   57.9070   53.9080 O.2    49  ASN49      -0.2715
     28  CB        70.1930   59.4090   54.3980 C.3    49  ASN49       0.1195
     29  CG        71.3410   59.9510   55.2870 C.2    49  ASN49       0.2630
     30  OD1       71.9040   60.9790   54.9680 O.2    49  ASN49      -0.2716
     31  ND2       71.6690   59.2770   56.3820 N.am   49  ASN49      -0.0877
     32  N         68.9950   56.7020   52.4700 N.am   50  ARG50      -0.1977
     33  CA        67.8310   56.1900   51.7880 C.3    50  ARG50       0.1597
     34  C         68.1950   55.0100   50.8990 C.2    50  ARG50       0.2287
     35  O         69.2900   54.9460   50.3550 O.2    50  ARG50      -0.2864
     36  CB        67.1850   57.2660   50.9060 C.3    50  ARG50       0.0334
     37  CG        67.9560   57.6260   49.6300 C.3    50  ARG50       0.0492
     38  CD        67.4640   58.9730   48.9980 C.3    50  ARG50       0.2205
     39  NE        67.5210   59.9990   50.0370 N.pl3  50  ARG50      -0.0865
     40  CZ        66.5040   60.4450   50.7590 C.cat  50  ARG50       0.5346
     41  NH1       65.2550   60.0460   50.5320 N.pl3  50  ARG50       0.1354
     42  NH2       66.7430   61.3090   51.7450 N.pl3  50  ARG50       0.1354
     43  N         66.6740   65.7540   52.5990 N.3    94  SER94      -0.1202
     44  CA        67.9470   65.5600   53.2470 C.3    94  SER94       0.2020
     45  C         68.1040   66.3260   54.5570 C.2    94  SER94       0.2619
     46  O         67.5870   67.4490   54.7160 O.2    94  SER94      -0.2717
     47  CB        69.0720   66.0090   52.3230 C.3    94  SER94       0.2103
     48  OG        69.0660   65.2560   51.1550 O.3    94  SER94      -0.2182
     49  N         68.8550   65.7170   55.4700 N.am   95  MET95      -0.1965
     50  CA        69.1010   66.3090   56.7880 C.3    95  MET95       0.1736
     51  C         69.7530   67.6610   56.6510 C.2    95  MET95       0.2616
     52  O         69.3840   68.6170   57.3160 O.2    95  MET95      -0.2715
     53  CB        69.9810   65.3890   57.6040 C.3    95  MET95       0.0427
     54  CG        69.1790   64.2660   58.2490 C.3    95  MET95       0.0599
     55  SD        70.1990   63.1150   59.2240 S.3    95  MET95      -0.1393
     56  CE        71.2680   62.5670   58.0820 C.3    95  MET95       0.0692
     57  N         70.7470   67.7100   55.7850 N.am   96  MET96      -0.1977
     58  CA        71.3130   68.9630   55.3750 C.3    96  MET96       0.1605
     59  C         70.5080   69.3880   54.1690 C.2    96  MET96       0.2287
     60  O         70.8620   69.0930   53.0230 O.2    96  MET96      -0.2864
     61  CB        72.8000   68.8700   55.0190 C.3    96  MET96       0.0413
     62  CG        73.7450   68.7200   56.2000 C.3    96  MET96       0.0598
     63  SD        75.5590   68.7700   55.7050 S.3    96  MET96      -0.1393
     64  CE        75.7120   67.1250   54.9490 C.3    96  MET96       0.0692
     65  N         71.4130   70.0820   50.2730 N.3    99  GLU99      -0.1245
     66  CA        72.7810   69.6530   50.0370 C.3    99  GLU99       0.1567
     67  C         73.0270   69.2930   48.5650 C.2    99  GLU99       0.2260
     68  O         72.1410   68.7530   47.8770 O.2    99  GLU99      -0.2867
     69  CB        73.1380   68.4840   50.9440 C.3    99  GLU99       0.0388
     70  CG        72.3060   67.2480   50.7380 C.3    99  GLU99       0.1160
     71  CD        73.0820   65.9940   51.0320 C.2    99  GLU99       0.3649
     72  OE1       73.4260   65.7760   52.2390 O.co2  99  GLU99      -0.2457
     73  OE2       73.3480   65.2380   50.0490 O.co2  99  GLU99      -0.2457
     74  N         75.2240   67.0900   47.4070 N.3   101  GLU101     -0.1231
     75  CA        75.5990   65.7140   47.1880 C.3   101  GLU101      0.1699
     76  C         74.4300   64.8530   46.6640 C.2   101  GLU101      0.2592
     77  O         74.6290   64.0640   45.7680 O.2   101  GLU101     -0.2718
     78  CB        76.2640   65.0920   48.4300 C.3   101  GLU101      0.0402
     79  CG        76.7630   63.6720   48.2070 C.3   101  GLU101      0.1161
     80  CD        77.5700   63.1120   49.3730 C.2   101  GLU101      0.3649
     81  OE1       77.0140   62.6190   50.3560 O.co2 101  GLU101     -0.2457
     82  OE2       78.7880   63.1600   49.2960 O.co2 101  GLU101     -0.2457
     83  N         73.2400   64.9900   47.2400 N.am  102  ILE102     -0.1980
     84  CA        72.1070   64.1560   46.8630 C.3   102  ILE102      0.1595
     85  C         71.7690   64.3630   45.3780 C.2   102  ILE102      0.2287
     86  O         71.3660   63.4210   44.6900 O.2   102  ILE102     -0.2864
     87  CB        70.9120   64.4140   47.8060 C.3   102  ILE102      0.0276
     88  CG1       69.8170   63.3500   47.6690 C.3   102  ILE102      0.0022
     89  CG2       70.3730   65.8420   47.6250 C.3   102  ILE102      0.0022
     90  CD1       70.2450   61.8960   47.6720 C.3   102  ILE102      0.0001
     91  N         74.0830   62.3270   43.5930 N.3   105  GLN105     -0.1245
     92  CA        73.7330   60.9250   43.7800 C.3   105  GLN105      0.1566
     93  C         72.5450   60.5000   42.8970 C.2   105  GLN105      0.2260
     94  O         72.5220   59.3850   42.3620 O.2   105  GLN105     -0.2867
     95  CB        73.5500   60.5720   45.2590 C.3   105  GLN105      0.0367
     96  CG        74.9270   60.6290   46.0570 C.3   105  GLN105      0.0905
     97  CD        74.7310   60.6900   47.5630 C.2   105  GLN105      0.2608
     98  OE1       73.8470   61.4140   48.0740 O.2   105  GLN105     -0.2717
     99  NE2       75.5570   59.9310   48.2970 N.am  105  GLN105     -0.0878
@<TRIPOS>BOND
     1    94    93    2
     2    93    92    1
     3    91    92    1
     4    92    95    1
     5    86    85    2
     6    95    96    1
     7    85    84    1
     8    77    76    2
     9    96    97    1
    10    76    75    1
    11    76    83   am
    12    84    83    1
    13    84    87    1
    14    75    74    1
    15    75    78    1
    16    97    98    2
    17    97    99   am
    18    89    87    1
    19    88    90    1
    20    88    87    1
    21    68    67    2
    22    79    78    1
    23    79    80    1
    24    17    15    1
    25    67    66    1
    26    38    37    1
    27    38    39    1
    28    11    12    1
    29    82    80   ar
    30    80    81   ar
    31    37    36    1
    32    15    12    1
    33    15    16    1
    34    12    13    1
    35    66    65    1
    36    66    69    1
    37    39    40    2
    38    73    71   ar
    39    35    34    2
    40    41    40    1
    41    70    69    1
    42    70    71    1
    43    40    42    1
    44    34    33    1
    45    36    33    1
    46    71    72   ar
    47    48    47    1
    48    13    14    2
    49    13    18   am
    50    33    32    1
    51    18    19    1
    52    47    44    1
    53    32    26   am
    54    43    44    1
    55    60    59    2
    56    44    45    1
    57    26    27    2
    58    26    25    1
    59    19    20    1
    60    19    22    1
    61    24    20   am
    62    24    25    1
    63    59    58    1
    64    20    21    2
    65    25    28    1
    66    23    22    1
    67    28    29    1
    68    45    46    2
    69    45    49   am
    70    64    63    1
    71    30    29    2
    72    61    58    1
    73    61    62    1
    74    29    31   am
    75    58    57    1
    76    49    50    1
    77     8    10   ar
    78     8     6   ar
    79    10     9   ar
    80    63    62    1
    81    57    51   am
    82     1     2    1
    83    51    50    1
    84    51    52    2
    85     6     5    1
    86     6     7   ar
    87     9     7   ar
    88    50    53    1
    89     5     2    1
    90     2     3    1
    91    53    54    1
    92     3     4    2
    93    56    55    1
    94    54    55    1
