@<TRIPOS>MOLECULE
tmp/1gpjA02.pdb
 95 88 0 0 0
SMALL
GASTEIGER

@<TRIPOS>ATOM
      1  N         70.7470   67.7100   55.7850 N.3    96  MET96      -0.1245
      2  CA        71.3130   68.9630   55.3750 C.3    96  MET96       0.1570
      3  C         70.5080   69.3880   54.1690 C.2    96  MET96       0.2261
      4  O         70.8620   69.0930   53.0230 O.2    96  MET96      -0.2867
      5  CB        72.8000   68.8700   55.0190 C.3    96  MET96       0.0387
      6  CG        73.7450   68.7200   56.2000 C.3    96  MET96       0.0595
      7  SD        75.5590   68.7700   55.7050 S.3    96  MET96      -0.1393
      8  CE        75.7120   67.1250   54.9490 C.3    96  MET96       0.0692
      9  N         68.9420   70.8720   51.1660 N.3    98  GLY98      -0.1210
     10  CA        69.4930   71.5570   50.0040 C.3    98  GLY98       0.1956
     11  C         70.8780   71.0830   49.5800 C.2    98  GLY98       0.2612
     12  O         71.4120   71.5850   48.5860 O.2    98  GLY98      -0.2717
     13  N         71.4130   70.0820   50.2730 N.am   99  GLU99      -0.1965
     14  CA        72.7810   69.6530   50.0370 C.3    99  GLU99       0.1733
     15  C         73.0270   69.2930   48.5650 C.2    99  GLU99       0.2616
     16  O         72.1410   68.7530   47.8770 O.2    99  GLU99      -0.2715
     17  CB        73.1380   68.4840   50.9440 C.3    99  GLU99       0.0429
     18  CG        72.3060   67.2480   50.7380 C.3    99  GLU99       0.1163
     19  CD        73.0820   65.9940   51.0320 C.2    99  GLU99       0.3649
     20  OE1       73.4260   65.7760   52.2390 O.co2  99  GLU99      -0.2457
     21  OE2       73.3480   65.2380   50.0490 O.co2  99  GLU99      -0.2457
     22  N         74.2040   69.6180   48.0820 N.am  100  GLN100     -0.1963
     23  CA        74.5950   69.3200   46.6940 C.3   100  GLN100      0.1733
     24  C         74.7720   67.8400   46.4090 C.2   100  GLN100      0.2616
     25  O         74.4510   67.3820   45.2990 O.2   100  GLN100     -0.2715
     26  CB        75.9200   69.9880   46.3170 C.3   100  GLN100      0.0408
     27  CG        75.8980   71.5020   46.3490 C.3   100  GLN100      0.0908
     28  CD        75.0790   72.1230   45.2170 C.2   100  GLN100      0.2608
     29  OE1       74.7140   73.3080   45.3000 O.2   100  GLN100     -0.2717
     30  NE2       74.7860   71.3370   44.1700 N.am  100  GLN100     -0.0878
     31  N         75.2240   67.0900   47.4070 N.am  101  GLU101     -0.1977
     32  CA        75.5990   65.7140   47.1880 C.3   101  GLU101      0.1602
     33  C         74.4300   64.8530   46.6640 C.2   101  GLU101      0.2287
     34  O         74.6290   64.0640   45.7680 O.2   101  GLU101     -0.2864
     35  CB        76.2640   65.0920   48.4300 C.3   101  GLU101      0.0415
     36  CG        76.7630   63.6720   48.2070 C.3   101  GLU101      0.1163
     37  CD        77.5700   63.1120   49.3730 C.2   101  GLU101      0.3649
     38  OE1       77.0140   62.6190   50.3560 O.co2 101  GLU101     -0.2457
     39  OE2       78.7880   63.1600   49.2960 O.co2 101  GLU101     -0.2457
     40  N         73.9950   64.9860   43.0600 N.3   104  ARG104     -0.1245
     41  CA        75.0200   64.1910   42.3660 C.3   104  ARG104      0.1563
     42  C         74.6290   62.7290   42.4460 C.2   104  ARG104      0.2260
     43  O         74.8210   61.9490   41.4750 O.2   104  ARG104     -0.2867
     44  CB        76.4360   64.4320   42.9010 C.3   104  ARG104      0.0307
     45  CG        76.9640   65.8150   42.5350 C.3   104  ARG104      0.0489
     46  CD        78.4800   66.0130   42.8040 C.3   104  ARG104      0.2205
     47  NE        78.7680   65.8490   44.2280 N.pl3 104  ARG104     -0.0865
     48  CZ        78.8950   66.8520   45.0800 C.cat 104  ARG104      0.5346
     49  NH1       78.7560   68.1140   44.6750 N.pl3 104  ARG104      0.1354
     50  NH2       79.1710   66.5970   46.3440 N.pl3 104  ARG104      0.1354
     51  N         70.2860   75.9830   49.0600 N.3   144  SER144     -0.1217
     52  CA        71.6410   75.3980   49.2440 C.3   144  SER144      0.1889
     53  C         72.7220   76.4320   49.5720 C.2   144  SER144      0.2288
     54  O         73.9050   76.2470   49.2400 O.2   144  SER144     -0.2866
     55  CB        72.0970   74.6300   48.0180 C.3   144  SER144      0.2089
     56  OG        71.9230   75.4030   46.8440 O.3   144  SER144     -0.2183
     57  N         74.7750   78.8130   52.3600 N.3   146  GLY146     -0.1210
     58  CA        75.1480   78.9250   53.7470 C.3   146  GLY146      0.1956
     59  C         75.7280   77.6370   54.2500 C.2   146  GLY146      0.2612
     60  O         75.1740   76.5590   53.9830 O.2   146  GLY146     -0.2717
     61  N         76.7750   77.7270   55.0590 N.am  147  ALA147     -0.1965
     62  CA        77.4420   76.5300   55.5730 C.3   147  ALA147      0.1728
     63  C         76.5760   75.7300   56.5590 C.2   147  ALA147      0.2616
     64  O         76.1700   76.2530   57.6000 O.2   147  ALA147     -0.2715
     65  CB        78.7180   76.9310   56.2530 C.3   147  ALA147      0.0334
     66  N         76.3700   74.4510   56.2900 N.am  148  VAL148     -0.1963
     67  CA        75.5830   73.5980   57.1940 C.3   148  VAL148      0.1727
     68  C         76.2980   72.3710   57.7410 C.2   148  VAL148      0.2616
     69  O         75.6570   71.4240   58.2120 O.2   148  VAL148     -0.2715
     70  CB        74.2180   73.2130   56.6190 C.3   148  VAL148      0.0290
     71  CG1       73.3360   74.4190   56.5780 C.3   148  VAL148      0.0023
     72  CG2       74.3630   72.5110   55.2780 C.3   148  VAL148      0.0023
     73  N         77.6350   72.3960   57.7080 N.am  149  SER149     -0.1950
     74  CA        78.4360   71.4040   58.4010 C.3   149  SER149      0.1924
     75  C         79.5920   72.1260   59.0800 C.2   149  SER149      0.2314
     76  O         79.9160   73.2180   58.6840 O.2   149  SER149     -0.2863
     77  CB        78.9960   70.3210   57.4670 C.3   149  SER149      0.2116
     78  OG        79.8340   70.8430   56.5010 O.3   149  SER149     -0.2180
     79  N         82.3970   73.3020   56.4130 N.3   152  SER152     -0.1217
     80  CA        81.9770   74.4800   55.6750 C.3   152  SER152      0.1889
     81  C         81.8270   75.6910   56.5850 C.2   152  SER152      0.2288
     82  O         82.1010   76.8140   56.1460 O.2   152  SER152     -0.2866
     83  CB        80.7120   74.2090   54.8310 C.3   152  SER152      0.2089
     84  OG        79.5940   73.8930   55.6370 O.3   152  SER152     -0.2183
     85  N         68.0750   77.9690   55.5410 N.3   300  ARG300     -0.1245
     86  CA        67.7560   77.1430   54.3900 C.3   300  ARG300      0.1563
     87  C         66.3380   76.5520   54.4820 C.2   300  ARG300      0.2260
     88  O         65.6330   76.4920   53.5100 O.2   300  ARG300     -0.2867
     89  CB        68.7120   75.9790   54.2700 C.3   300  ARG300      0.0307
     90  CG        70.1050   76.3000   53.7860 C.3   300  ARG300      0.0489
     91  CD        70.8420   74.9860   53.5460 C.3   300  ARG300      0.2205
     92  NE        72.1900   75.2050   53.1960 N.pl3 300  ARG300     -0.0865
     93  CZ        72.9330   74.4050   52.4740 C.cat 300  ARG300      0.5346
     94  NH1       72.4770   73.2980   51.9590 N.pl3 300  ARG300      0.1354
     95  NH2       74.1630   74.7640   52.2400 N.pl3 300  ARG300      0.1354
@<TRIPOS>BOND
     1    43    42    2
     2    41    42    1
     3    41    44    1
     4    41    40    1
     5    45    46    1
     6    45    44    1
     7    46    47    1
     8    30    28   am
     9    47    48    2
    10    49    48    1
    11    48    50    1
    12    28    29    2
    13    28    27    1
    14    25    24    2
    15    34    33    2
    16    26    27    1
    17    26    23    1
    18    24    23    1
    19    24    31   am
    20    33    32    1
    21    23    22    1
    22    56    55    1
    23    32    31    1
    24    32    35    1
    25    16    15    2
    26    55    52    1
    27    22    15   am
    28    36    35    1
    29    36    37    1
    30    15    14    1
    31    12    11    2
    32    51    52    1
    33    54    53    2
    34    52    53    1
    35    39    37   ar
    36    37    38   ar
    37    11    10    1
    38    11    13   am
    39    10     9    1
    40    14    13    1
    41    14    17    1
    42    21    19   ar
    43    18    17    1
    44    18    19    1
    45    19    20   ar
    46    94    93    1
    47    95    93    1
    48    57    58    1
    49    93    92    2
    50     4     3    2
    51    92    91    1
    52    88    87    2
    53    91    90    1
    54    58    59    1
    55    90    89    1
    56    60    59    2
    57     3     2    1
    58    59    61   am
    59    89    86    1
    60    86    87    1
    61    86    85    1
    62    83    84    1
    63    83    80    1
    64     8     7    1
    65     5     2    1
    66     5     6    1
    67    61    62    1
    68    72    70    1
    69     2     1    1
    70    62    65    1
    71    62    63    1
    72    80    79    1
    73    80    81    1
    74     7     6    1
    75    82    81    2
    76    66    63   am
    77    66    67    1
    78    78    77    1
    79    63    64    2
    80    71    70    1
    81    70    67    1
    82    67    68    1
    83    77    74    1
    84    73    68   am
    85    73    74    1
    86    68    69    2
    87    74    75    1
    88    76    75    2
