@<TRIPOS>MOLECULE
tmp/1gpmA02.pdb
 134 132 0 0 0
SMALL
GASTEIGER

@<TRIPOS>ATOM
      1  N        121.9820   89.8850   72.7180 N.3    14  GLY14      -0.1210
      2  CA       121.3710   88.5870   72.8930 C.3    14  GLY14       0.1956
      3  C        121.0190   87.7810   71.6720 C.2    14  GLY14       0.2613
      4  O        120.4510   86.6990   71.8090 O.2    14  GLY14      -0.2717
      5  N        121.3230   88.2870   70.4890 N.am   15  SER15      -0.1938
      6  CA       121.0040   87.5840   69.2530 C.3    15  SER15       0.2055
      7  C        121.7190   86.2470   69.1110 C.2    15  SER15       0.2643
      8  O        122.8830   86.1100   69.4940 O.2    15  SER15      -0.2714
      9  CB       121.3620   88.4600   68.0510 C.3    15  SER15       0.2130
     10  OG       121.3030   87.7370   66.8350 O.3    15  SER15      -0.2179
     11  N        121.0510   85.2900   68.4720 N.am   16  GLN16      -0.1963
     12  CA       121.6450   83.9740   68.2400 C.3    16  GLN16       0.1733
     13  C        122.7900   84.0710   67.2280 C.2    16  GLN16       0.2616
     14  O        123.6810   83.2300   67.1980 O.2    16  GLN16      -0.2715
     15  CB       120.5920   82.9830   67.7350 C.3    16  GLN16       0.0408
     16  CG       119.8100   83.4590   66.5210 C.3    16  GLN16       0.0908
     17  CD       119.1500   82.3200   65.7750 C.2    16  GLN16       0.2608
     18  OE1      119.7750   81.2970   65.5120 O.2    16  GLN16      -0.2717
     19  NE2      117.8880   82.4930   65.4190 N.am   16  GLN16      -0.0878
     20  N        122.7760   85.1410   66.4410 N.am   17  TYR17      -0.1974
     21  CA       123.7710   85.3840   65.4020 C.3    17  TYR17       0.1639
     22  C        124.9220   86.3280   65.7710 C.2    17  TYR17       0.2290
     23  O        125.7420   86.6690   64.9100 O.2    17  TYR17      -0.2864
     24  CB       123.0710   85.9330   64.1560 C.3    17  TYR17       0.0560
     25  CG       121.9620   85.0670   63.6120 C.ar   17  TYR17      -0.0198
     26  CD1      122.2120   83.7570   63.1820 C.ar   17  TYR17      -0.0009
     27  CD2      120.6700   85.5640   63.4840 C.ar   17  TYR17      -0.0009
     28  CE1      121.1960   82.9670   62.6280 C.ar   17  TYR17       0.0417
     29  CE2      119.6480   84.7880   62.9340 C.ar   17  TYR17       0.0417
     30  CZ       119.9210   83.4920   62.5070 C.ar   17  TYR17       0.1957
     31  OH       118.9220   82.7340   61.9430 O.3    17  TYR17      -0.2866
     32  N        121.5870   92.1200   67.1240 N.3    56  GLY56      -0.1210
     33  CA       120.1570   91.9750   67.3070 C.3    56  GLY56       0.1956
     34  C        119.9340   91.3910   68.6870 C.2    56  GLY56       0.2612
     35  O        120.8990   91.0930   69.3930 O.2    56  GLY56      -0.2717
     36  N        118.6780   91.1910   69.0630 N.am   57  GLY57      -0.1942
     37  CA       118.3680   90.6630   70.3790 C.3    57  GLY57       0.1998
     38  C        116.8880   90.3520   70.5120 C.2    57  GLY57       0.2481
     39  O        116.0440   91.0670   69.9590 O.2    57  GLY57      -0.2729
     40  N        116.5330   89.3380   71.3180 N.am   58  PRO58      -0.2715
     41  CA       115.1400   88.9260   71.5160 C.3    58  PRO58       0.1536
     42  C        114.2350   89.8710   72.3130 C.2    58  PRO58       0.2598
     43  O        113.0060   89.7580   72.2460 O.2    58  PRO58      -0.2715
     44  CB       115.3000   87.5810   72.2150 C.3    58  PRO58       0.0310
     45  CG       116.4920   87.8280   73.1030 C.3    58  PRO58       0.0237
     46  CD       117.4440   88.5590   72.1820 C.3    58  PRO58       0.0939
     47  N        114.8330   90.8020   73.0440 N.am   59  GLU59      -0.1978
     48  CA       114.0720   91.7290   73.8760 C.3    59  GLU59       0.1602
     49  C        113.3040   92.7990   73.1020 C.2    59  GLU59       0.2287
     50  O        113.3520   92.8500   71.8800 O.2    59  GLU59      -0.2864
     51  CB       115.0040   92.3900   74.8960 C.3    59  GLU59       0.0415
     52  CG       115.8380   91.4180   75.7080 C.3    59  GLU59       0.1163
     53  CD       115.0280   90.6730   76.7470 C.2    59  GLU59       0.3649
     54  OE1      114.2330   89.7760   76.3740 O.co2  59  GLU59      -0.2457
     55  OE2      115.1880   90.9880   77.9420 O.co2  59  GLU59      -0.2457
     56  N        118.9720   94.9980   63.4100 N.3    84  CYS84      -0.1221
     57  CA       117.6840   94.6350   64.0160 C.3    84  CYS84       0.1808
     58  C        117.4620   95.3360   65.3670 C.2    84  CYS84       0.2601
     59  O        117.1810   96.5320   65.3730 O.2    84  CYS84      -0.2717
     60  CB       117.5490   93.1110   64.1140 C.3    84  CYS84       0.0970
     61  SG       117.7000   92.2540   62.5000 S.3    84  CYS84      -0.0800
     62  N        117.6000   94.6390   66.4970 N.am   85  TYR85      -0.1976
     63  CA       117.4160   95.2870   67.8080 C.3    85  TYR85       0.1639
     64  C        118.3950   96.4500   67.9990 C.2    85  TYR85       0.2290
     65  O        118.0490   97.4790   68.6090 O.2    85  TYR85      -0.2864
     66  CB       117.5850   94.2800   68.9570 C.3    85  TYR85       0.0560
     67  CG       117.2880   94.8650   70.3220 C.ar   85  TYR85      -0.0198
     68  CD1      118.2820   95.4830   71.0710 C.ar   85  TYR85      -0.0009
     69  CD2      116.0030   94.8150   70.8540 C.ar   85  TYR85      -0.0009
     70  CE1      118.0020   96.0350   72.3140 C.ar   85  TYR85       0.0417
     71  CE2      115.7190   95.3600   72.0880 C.ar   85  TYR85       0.0417
     72  CZ       116.7170   95.9680   72.8150 C.ar   85  TYR85       0.1957
     73  OH       116.4130   96.5030   74.0470 O.3    85  TYR85      -0.2866
     74  N        116.8160   99.2930   66.4130 N.3    88  GLN88      -0.1245
     75  CA       115.6590   99.7360   67.1750 C.3    88  GLN88       0.1566
     76  C        116.0220  100.5220   68.3930 C.2    88  GLN88       0.2260
     77  O        115.3840  101.5260   68.6820 O.2    88  GLN88      -0.2867
     78  CB       114.7480   98.5730   67.5330 C.3    88  GLN88       0.0367
     79  CG       114.1200   97.9850   66.3180 C.3    88  GLN88       0.0905
     80  CD       113.0820   96.9550   66.6290 C.2    88  GLN88       0.2608
     81  OE1      113.0910   96.3590   67.7090 O.2    88  GLN88      -0.2717
     82  NE2      112.2050   96.6920   65.6630 N.am   88  GLN88      -0.0878
     83  N        105.9470   88.7700   65.2300 N.3   104  ARG104     -0.1245
     84  CA       107.2490   89.1880   64.7290 C.3   104  ARG104      0.1563
     85  C        107.6340   88.5580   63.3930 C.2   104  ARG104      0.2260
     86  O        107.3100   87.3980   63.1230 O.2   104  ARG104     -0.2867
     87  CB       108.3150   88.8920   65.7880 C.3   104  ARG104      0.0307
     88  CG       107.9860   89.5100   67.1400 C.3   104  ARG104      0.0489
     89  CD       109.0840   89.3300   68.1650 C.3   104  ARG104      0.2205
     90  NE       108.8010   90.1080   69.3710 N.pl3 104  ARG104     -0.0865
     91  CZ       109.6700   90.3040   70.3630 C.cat 104  ARG104      0.5346
     92  NH1      110.8950   89.7790   70.2990 N.pl3 104  ARG104      0.1354
     93  NH2      109.3110   91.0230   71.4230 N.pl3 104  ARG104      0.1354
     94  N        110.4130   87.1970   60.6960 N.3   106  PHE106     -0.1241
     95  CA       111.7210   86.5580   60.6110 C.3   106  PHE106      0.1605
     96  C        111.7260   85.7230   59.3330 C.2   106  PHE106      0.2264
     97  O        111.2770   84.5740   59.3340 O.2   106  PHE106     -0.2867
     98  CB       111.9480   85.6420   61.8200 C.3   106  PHE106      0.0534
     99  CG       113.3470   85.0880   61.9140 C.ar  106  PHE106     -0.0203
    100  CD1      114.3420   85.7870   62.5950 C.ar  106  PHE106     -0.0042
    101  CD2      113.6680   83.8680   61.3350 C.ar  106  PHE106     -0.0042
    102  CE1      115.6310   85.2800   62.7040 C.ar  106  PHE106     -0.0003
    103  CE2      114.9560   83.3510   61.4390 C.ar  106  PHE106     -0.0003
    104  CZ       115.9410   84.0640   62.1260 C.ar  106  PHE106     -0.0000
    105  N        114.0590   90.5330   60.0930 N.3   140  SER140     -0.1202
    106  CA       113.8850   90.1500   61.4860 C.3   140  SER140      0.2020
    107  C        113.4860   91.3790   62.2790 C.2   140  SER140      0.2619
    108  O        114.3450   92.1730   62.6580 O.2   140  SER140     -0.2717
    109  CB       115.1870   89.6020   62.0460 C.3   140  SER140      0.2103
    110  OG       114.9350   89.0200   63.3020 O.3   140  SER140     -0.2182
    111  N        112.1810   91.5880   62.4220 N.am  141  HIS141     -0.1961
    112  CA       111.6860   92.7260   63.1900 C.3   141  HIS141      0.1787
    113  C        110.5270   92.3520   64.0890 C.2   141  HIS141      0.2620
    114  O        109.5200   91.7840   63.6450 O.2   141  HIS141     -0.2715
    115  CB       111.3000   93.9000   62.2840 C.3   141  HIS141      0.0785
    116  CG       110.3180   93.5480   61.2130 C.ar  141  HIS141      0.0821
    117  ND1      108.9580   93.7000   61.3630 N.ar  141  HIS141     -0.2267
    118  CD2      110.5050   93.1100   59.9430 C.ar  141  HIS141      0.1154
    119  CE1      108.3460   93.3810   60.2330 C.ar  141  HIS141      0.1986
    120  NE2      109.2680   93.0200   59.3570 N.ar  141  HIS141     -0.2212
    121  N        110.7230   92.6150   65.3730 N.am  142  GLY142     -0.1954
    122  CA       109.6990   92.3480   66.3560 C.3   142  GLY142      0.1869
    123  C        108.8050   93.5610   66.3940 C.2   142  GLY142      0.2309
    124  O        107.8890   93.6840   65.5810 O.2   142  GLY142     -0.2863
    125  N        119.4270   90.7900   58.8050 N.3   179  HIS179     -0.1241
    126  CA       120.7380   90.2530   59.1610 C.3   179  HIS179      0.1621
    127  C        121.6600   90.0640   58.0020 C.2   179  HIS179      0.2264
    128  O        121.5200   89.1000   57.2600 O.2   179  HIS179     -0.2867
    129  CB       120.5860   88.9150   59.8630 C.3   179  HIS179      0.0745
    130  CG       119.9240   89.0300   61.1880 C.ar  179  HIS179      0.0817
    131  ND1      120.6360   89.1620   62.3610 N.ar  179  HIS179     -0.2268
    132  CD2      118.6220   89.1230   61.5220 C.ar  179  HIS179      0.1154
    133  CE1      119.7960   89.3320   63.3620 C.ar  179  HIS179      0.1986
    134  NE2      118.5690   89.3130   62.8800 N.ar  179  HIS179     -0.2212
@<TRIPOS>BOND
     1   128   127    2
     2   127   126    1
     3   125   126    1
     4   126   129    1
     5    96    97    2
     6    96    95    1
     7   120   118   ar
     8   120   119   ar
     9   129   130    1
    10   118   116   ar
    11   105   106    1
    12   119   117   ar
    13    95    94    1
    14    95    98    1
    15   130   132   ar
    16   130   131   ar
    17   116   117   ar
    18   116   115    1
    19   101   103   ar
    20   101    99   ar
    21   103   104   ar
    22   106   109    1
    23   106   107    1
    24   132   134   ar
    25    98    99    1
    26    99   100   ar
    27    31    30    1
    28   109   110    1
    29   104   102   ar
    30   107   111   am
    31   107   108    2
    32   115   112    1
    33   131   133   ar
    34   111   112    1
    35    61    60    1
    36    30    28   ar
    37    30    29   ar
    38   100   102   ar
    39    28    26   ar
    40   134   133   ar
    41    29    27   ar
    42    86    85    2
    43    26    25   ar
    44   112   113    1
    45    85    84    1
    46    56    57    1
    47    27    25   ar
    48    25    24    1
    49   114   113    2
    50    57    60    1
    51    57    58    1
    52   113   121   am
    53    24    21    1
    54    84    83    1
    55    84    87    1
    56    23    22    2
    57    58    59    2
    58    58    62   am
    59   121   122    1
    60    21    22    1
    61    21    20    1
    62    19    17   am
    63    18    17    2
    64   124   123    2
    65    82    80   am
    66    17    16    1
    67    87    88    1
    68    79    80    1
    69    79    78    1
    70   122   123    1
    71    74    75    1
    72    20    13   am
    73    62    63    1
    74    16    15    1
    75    80    81    2
    76    10     9    1
    77    32    33    1
    78    88    89    1
    79    75    78    1
    80    75    76    1
    81    14    13    2
    82    13    12    1
    83    33    34    1
    84    15    12    1
    85    63    64    1
    86    63    66    1
    87    64    65    2
    88     9     6    1
    89    89    90    1
    90    12    11    1
    91    76    77    2
    92    11     7   am
    93    34    36   am
    94    34    35    2
    95    66    67    1
    96    36    37    1
    97     7     6    1
    98     7     8    2
    99     6     5    1
   100    90    91    2
   101    39    38    2
   102    92    91    1
   103    67    69   ar
   104    67    68   ar
   105    91    93    1
   106    37    38    1
   107     5     3   am
   108    38    40   am
   109    69    71   ar
   110    68    70   ar
   111    40    41    1
   112    40    46    1
   113    41    44    1
   114    41    42    1
   115     3     4    2
   116     3     2    1
   117    50    49    2
   118    71    72   ar
   119    46    45    1
   120    44    45    1
   121    43    42    2
   122    42    47   am
   123    70    72   ar
   124     1     2    1
   125    72    73    1
   126    47    48    1
   127    49    48    1
   128    48    51    1
   129    51    52    1
   130    52    53    1
   131    54    53   ar
   132    53    55   ar
