@<TRIPOS>MOLECULE
tmp/1gpmA01.pdb
 131 125 0 0 0
SMALL
GASTEIGER

@<TRIPOS>ATOM
      1  N        152.9580   70.9040   77.3400 N.3   230  LEU230     -0.1231
      2  CA       151.6570   70.8830   76.6940 C.3   230  LEU230      0.1693
      3  C        151.0490   69.4810   76.5730 C.2   230  LEU230      0.2593
      4  O        151.6930   68.5390   76.1060 O.2   230  LEU230     -0.2718
      5  CB       151.7830   71.5090   75.3000 C.3   230  LEU230      0.0284
      6  CG       150.6080   71.4110   74.3310 C.3   230  LEU230      0.0019
      7  CD1      149.5090   72.3420   74.8090 C.3   230  LEU230      0.0001
      8  CD2      151.0690   71.7870   72.9320 C.3   230  LEU230      0.0001
      9  N        149.7880   69.3560   76.9570 N.am  231  GLY231     -0.1942
     10  CA       149.1260   68.0790   76.8200 C.3   231  GLY231      0.2014
     11  C        148.6300   67.9210   75.3890 C.2   231  GLY231      0.2639
     12  O        147.7380   68.6620   74.9760 O.2   231  GLY231     -0.2714
     13  N        149.2380   67.0210   74.6150 N.am  232  LEU232     -0.1963
     14  CA       148.8380   66.7550   73.2160 C.3   232  LEU232      0.1728
     15  C        147.6780   65.7440   73.1640 C.2   232  LEU232      0.2616
     16  O        147.8650   64.5860   73.4860 O.2   232  LEU232     -0.2715
     17  CB       149.9960   66.1260   72.4350 C.3   232  LEU232      0.0311
     18  CG       150.7450   66.8060   71.2990 C.3   232  LEU232      0.0022
     19  CD1      151.5070   65.7160   70.5980 C.3   232  LEU232      0.0001
     20  CD2      149.8020   67.4320   70.3210 C.3   232  LEU232      0.0001
     21  N        146.4970   66.1700   72.7380 N.am  233  SER233     -0.1950
     22  CA       145.3700   65.2340   72.6480 C.3   233  SER233      0.1924
     23  C        145.1420   64.7720   71.1970 C.2   233  SER233      0.2314
     24  O        144.4590   63.7910   70.9380 O.2   233  SER233     -0.2863
     25  CB       144.0990   65.9000   73.1790 C.3   233  SER233      0.2116
     26  OG       143.7590   66.9870   72.3480 O.3   233  SER233     -0.2180
     27  N        142.5320   72.1760   68.7430 N.3   237  ASP237     -0.1225
     28  CA       143.1120   73.2880   69.4850 C.3   237  ASP237      0.1805
     29  C        144.4900   73.0250   70.0460 C.2   237  ASP237      0.2598
     30  O        145.3920   73.8570   69.8980 O.2   237  ASP237     -0.2718
     31  CB       142.1630   73.7230   70.5850 C.3   237  ASP237      0.1424
     32  CG       140.8120   74.1370   70.0530 C.2   237  ASP237      0.3668
     33  OD1      140.6840   74.3860   68.8360 O.co2 237  ASP237     -0.2456
     34  OD2      139.8630   74.2200   70.8580 O.co2 237  ASP237     -0.2456
     35  N        144.6800   71.8590   70.6630 N.am  238  SER238     -0.1952
     36  CA       145.9800   71.5200   71.2190 C.3   238  SER238      0.1924
     37  C        146.9870   71.2810   70.1110 C.2   238  SER238      0.2314
     38  O        148.1570   71.6380   70.2520 O.2   238  SER238     -0.2863
     39  CB       145.8810   70.3070   72.1630 C.3   238  SER238      0.2116
     40  OG       145.5440   69.1090   71.4780 O.3   238  SER238     -0.2180
     41  N        153.1790   66.3060   76.1440 N.3   256  VAL256     -0.1231
     42  CA       152.8950   65.0600   76.8110 C.3   256  VAL256      0.1692
     43  C        151.6710   64.4710   76.1250 C.2   256  VAL256      0.2592
     44  O        150.6190   65.1190   76.0680 O.2   256  VAL256     -0.2718
     45  CB       152.6100   65.2500   78.3120 C.3   256  VAL256      0.0266
     46  CG1      152.3630   63.8890   78.9640 C.3   256  VAL256      0.0020
     47  CG2      153.7950   65.9330   79.0050 C.3   256  VAL256      0.0020
     48  N        151.8330   63.2980   75.5130 N.am  257  PHE257     -0.1962
     49  CA       150.7190   62.6180   74.8580 C.3   257  PHE257      0.1771
     50  C        150.3630   61.3900   75.6840 C.2   257  PHE257      0.2619
     51  O        151.1860   60.4900   75.8590 O.2   257  PHE257     -0.2715
     52  CB       151.0550   62.1820   73.4280 C.3   257  PHE257      0.0574
     53  CG       149.9720   61.3750   72.7890 C.ar  257  PHE257     -0.0200
     54  CD1      148.7060   61.9080   72.6100 C.ar  257  PHE257     -0.0042
     55  CD2      150.1910   60.0600   72.4270 C.ar  257  PHE257     -0.0042
     56  CE1      147.6710   61.1340   72.0780 C.ar  257  PHE257     -0.0003
     57  CE2      149.1670   59.2820   71.8980 C.ar  257  PHE257     -0.0003
     58  CZ       147.9020   59.8220   71.7250 C.ar  257  PHE257     -0.0000
     59  N        149.1360   61.3610   76.1840 N.am  258  VAL258     -0.1977
     60  CA       148.6560   60.2610   77.0030 C.3   258  VAL258      0.1596
     61  C        147.7230   59.3570   76.2240 C.2   258  VAL258      0.2287
     62  O        146.6470   59.7840   75.8020 O.2   258  VAL258     -0.2864
     63  CB       147.8760   60.7800   78.2410 C.3   258  VAL258      0.0276
     64  CG1      147.3510   59.6080   79.0740 C.3   258  VAL258      0.0022
     65  CG2      148.7680   61.6740   79.0810 C.3   258  VAL258      0.0022
     66  N        145.1730   56.9200   76.4950 N.3   260  ASN260     -0.1240
     67  CA       144.2950   56.3850   77.5190 C.3   260  ASN260      0.1653
     68  C        143.5580   55.1100   77.0870 C.2   260  ASN260      0.2266
     69  O        142.7370   54.5830   77.8250 O.2   260  ASN260     -0.2867
     70  CB       143.2920   57.4640   77.9720 C.3   260  ASN260      0.1155
     71  CG       142.4190   57.9880   76.8320 C.2   260  ASN260      0.2627
     72  OD1      142.5070   57.5140   75.7050 O.2   260  ASN260     -0.2716
     73  ND2      141.5760   58.9710   77.1310 N.am  260  ASN260     -0.0877
     74  N        140.9550   56.1540   72.4200 N.3   263  LEU263     -0.1245
     75  CA       141.0060   56.9230   71.1880 C.3   263  LEU263      0.1561
     76  C        140.6420   56.0020   70.0330 C.2   263  LEU263      0.2260
     77  O        140.3960   54.8190   70.2350 O.2   263  LEU263     -0.2867
     78  CB       142.4110   57.5130   71.0170 C.3   263  LEU263      0.0270
     79  CG       142.9070   58.2080   72.3070 C.3   263  LEU263      0.0019
     80  CD1      144.3870   58.5650   72.2300 C.3   263  LEU263      0.0001
     81  CD2      142.0610   59.4290   72.6220 C.3   263  LEU263      0.0001
     82  N        143.4500   61.2050   84.1840 N.3   313  PHE313     -0.1241
     83  CA       144.2110   62.0390   83.2590 C.3   313  PHE313      0.1605
     84  C        145.0550   63.0620   84.0030 C.2   313  PHE313      0.2264
     85  O        146.2240   63.2700   83.6600 O.2   313  PHE313     -0.2867
     86  CB       143.3380   62.7660   82.2290 C.3   313  PHE313      0.0534
     87  CG       144.1250   63.7400   81.3880 C.ar  313  PHE313     -0.0203
     88  CD1      144.9810   63.2790   80.3870 C.ar  313  PHE313     -0.0042
     89  CD2      144.1100   65.1050   81.6790 C.ar  313  PHE313     -0.0042
     90  CE1      145.8190   64.1620   79.6920 C.ar  313  PHE313     -0.0003
     91  CE2      144.9400   65.9950   80.9920 C.ar  313  PHE313     -0.0003
     92  CZ       145.7980   65.5190   79.9980 C.ar  313  PHE313     -0.0000
     93  N        149.0920   63.2990   83.9020 N.3   317  PHE317     -0.1241
     94  CA       149.7360   64.5050   83.3910 C.3   317  PHE317      0.1605
     95  C        150.6710   65.1220   84.4480 C.2   317  PHE317      0.2264
     96  O        151.8120   65.4940   84.1330 O.2   317  PHE317     -0.2867
     97  CB       148.6820   65.5160   82.9190 C.3   317  PHE317      0.0534
     98  CG       149.2650   66.7070   82.2390 C.ar  317  PHE317     -0.0203
     99  CD1      149.8000   66.5990   80.9660 C.ar  317  PHE317     -0.0042
    100  CD2      149.2810   67.9450   82.8720 C.ar  317  PHE317     -0.0042
    101  CE1      150.3570   67.7090   80.3270 C.ar  317  PHE317     -0.0003
    102  CE2      149.8340   69.0590   82.2460 C.ar  317  PHE317     -0.0003
    103  CZ       150.3700   68.9420   80.9670 C.ar  317  PHE317     -0.0000
    104  N        147.9960   75.9380   76.9130 N.3   332  GLN332     -0.1231
    105  CA       146.6100   75.4780   76.7730 C.3   332  GLN332      0.1698
    106  C        146.0300   75.9650   75.4450 C.2   332  GLN332      0.2592
    107  O        146.4010   77.0350   74.9620 O.2   332  GLN332     -0.2718
    108  CB       145.7360   75.9910   77.9080 C.3   332  GLN332      0.0381
    109  CG       146.0730   75.4080   79.2450 C.3   332  GLN332      0.0905
    110  CD       144.9250   75.5060   80.2250 C.2   332  GLN332      0.2608
    111  OE1      144.7840   74.6500   81.1000 O.2   332  GLN332     -0.2717
    112  NE2      144.1110   76.5540   80.1020 N.am  332  GLN332     -0.0878
    113  N        145.1110   75.1850   74.8750 N.am  333  GLY333     -0.1957
    114  CA       144.4990   75.5370   73.6010 C.3   333  GLY333      0.1869
    115  C        143.2110   76.3280   73.7010 C.2   333  GLY333      0.2309
    116  O        142.3380   76.2380   72.8390 O.2   333  GLY333     -0.2863
    117  N        135.3920   65.0950   68.8690 N.3   379  PHE379     -0.1241
    118  CA       135.5360   63.8100   69.5640 C.3   379  PHE379      0.1605
    119  C        135.4890   64.1570   71.0590 C.2   379  PHE379      0.2264
    120  O        136.2040   65.0420   71.5090 O.2   379  PHE379     -0.2867
    121  CB       136.8830   63.1840   69.1740 C.3   379  PHE379      0.0534
    122  CG       137.1190   61.7950   69.7250 C.ar  379  PHE379     -0.0203
    123  CD1      136.2450   60.7520   69.4460 C.ar  379  PHE379     -0.0042
    124  CD2      138.2520   61.5260   70.5040 C.ar  379  PHE379     -0.0042
    125  CE1      136.4950   59.4580   69.9350 C.ar  379  PHE379     -0.0003
    126  CE2      138.5070   60.2390   70.9950 C.ar  379  PHE379     -0.0003
    127  CZ       137.6270   59.2060   70.7080 C.ar  379  PHE379     -0.0000
    128  N        135.8670   64.3620   75.1520 N.3   381  GLY381     -0.1225
    129  CA       137.0450   64.2990   76.0050 C.3   381  GLY381      0.1811
    130  C        137.3360   62.9000   76.5340 C.2   381  GLY381      0.2280
    131  O        138.4840   62.4450   76.4920 O.2   381  GLY381     -0.2866
@<TRIPOS>BOND
     1    27    28    1
     2    33    32   ar
     3   117   118    1
     4   121   118    1
     5   121   122    1
     6   123   122   ar
     7   123   125   ar
     8    28    29    1
     9    28    31    1
    10   118   119    1
    11   122   124   ar
    12    30    29    2
    13   125   127   ar
    14    76    77    2
    15    76    75    1
    16    29    35   am
    17    32    31    1
    18    32    34   ar
    19    37    38    2
    20    37    36    1
    21    20    18    1
    22   124   126   ar
    23    19    18    1
    24    35    36    1
    25   127   126   ar
    26    24    23    2
    27    78    75    1
    28    78    79    1
    29   119   120    2
    30    75    74    1
    31    23    22    1
    32    36    39    1
    33    18    17    1
    34    40    39    1
    35    58    57   ar
    36    58    56   ar
    37    57    55   ar
    38    56    54   ar
    39    80    79    1
    40    79    81    1
    41    26    25    1
    42    55    53   ar
    43    17    14    1
    44    54    53   ar
    45    22    21    1
    46    22    25    1
    47    21    15   am
    48    53    52    1
    49   116   115    2
    50     8     6    1
    51    15    14    1
    52    15    16    2
    53    14    13    1
    54    52    49    1
    55   114   115    1
    56   114   113    1
    57     6     7    1
    58     6     5    1
    59    13    11   am
    60    49    48    1
    61    49    50    1
    62   113   106   am
    63   107   106    2
    64    12    11    2
    65   128   129    1
    66     5     2    1
    67    11    10    1
    68   106   105    1
    69    48    43   am
    70    50    51    2
    71    50    59   am
    72    72    71    2
    73    62    61    2
    74   129   130    1
    75    44    43    2
    76     4     3    2
    77    43    42    1
    78    41    42    1
    79    59    60    1
    80    61    60    1
    81   131   130    2
    82    66    67    1
    83     3     2    1
    84     3     9   am
    85     2     1    1
    86   105   104    1
    87   105   108    1
    88    42    45    1
    89    10     9    1
    90    71    73   am
    91    71    70    1
    92    60    63    1
    93    68    67    1
    94    68    69    2
    95    67    70    1
    96   108   109    1
    97    63    64    1
    98    63    65    1
    99    45    46    1
   100    45    47    1
   101   109   110    1
   102    90    92   ar
   103    90    88   ar
   104    92    91   ar
   105   112   110   am
   106   110   111    2
   107   101    99   ar
   108   101   103   ar
   109    88    87   ar
   110    99    98   ar
   111   103   102   ar
   112    91    89   ar
   113    87    89   ar
   114    87    86    1
   115    86    83    1
   116    98   100   ar
   117    98    97    1
   118   102   100   ar
   119    97    94    1
   120    83    84    1
   121    83    82    1
   122    94    93    1
   123    94    95    1
   124    85    84    2
   125    96    95    2
