@<TRIPOS>MOLECULE
tmp/1gpnA00.pdb
 182 182 0 0 0
SMALL
GASTEIGER

@<TRIPOS>ATOM
      1  N         -4.0880   68.3440   69.9050 N.3    69  ASP69      -0.1239
      2  CA        -3.0630   68.4010   70.9350 C.3    69  ASP69       0.1674
      3  C         -3.4130   69.4070   72.0320 C.2    69  ASP69       0.2266
      4  O         -3.4230   70.6010   71.7870 O.2    69  ASP69      -0.2867
      5  CB        -1.7160   68.7740   70.3080 C.3    69  ASP69       0.1410
      6  CG        -0.5880   68.8700   71.3410 C.2    69  ASP69       0.3668
      7  OD1       -0.7240   68.3250   72.4650 O.co2  69  ASP69      -0.2456
      8  OD2        0.4550   69.4560   71.0020 O.co2  69  ASP69      -0.2456
      9  N          2.6290   74.5790   70.3290 N.3    78  SER78      -0.1217
     10  CA         1.8310   73.4400   69.9320 C.3    78  SER78       0.1889
     11  C          0.5100   73.8150   69.2590 C.2    78  SER78       0.2288
     12  O          0.0520   73.0970   68.3700 O.2    78  SER78      -0.2866
     13  CB         1.5750   72.5120   71.1310 C.3    78  SER78       0.2089
     14  OG         0.9750   73.2070   72.1980 O.3    78  SER78      -0.2183
     15  N         -0.1060   73.9950   65.3520 N.3    81  TRP81      -0.1241
     16  CA        -0.2400   72.7780   64.5770 C.3    81  TRP81       0.1605
     17  C         -1.6500   72.2000   64.6460 C.2    81  TRP81       0.2264
     18  O         -2.0030   71.3510   63.8260 O.2    81  TRP81      -0.2867
     19  CB         0.7700   71.7340   65.0580 C.3    81  TRP81       0.0550
     20  CG         2.1690   72.2130   64.9780 C.ar   81  TRP81       0.0003
     21  CD1        2.9060   72.7500   65.9840 C.ar   81  TRP81       0.0946
     22  CD2        3.0020   72.2430   63.8080 C.ar   81  TRP81       0.0152
     23  NE1        4.1450   73.1140   65.5230 N.ar   81  TRP81      -0.2442
     24  CE2        4.2350   72.8160   64.1900 C.ar   81  TRP81       0.0810
     25  CE3        2.8250   71.8400   62.4710 C.ar   81  TRP81       0.0012
     26  CZ2        5.2970   73.0060   63.2820 C.ar   81  TRP81       0.0191
     27  CZ3        3.8800   72.0310   61.5680 C.ar   81  TRP81       0.0001
     28  CH2        5.0980   72.6090   61.9840 C.ar   81  TRP81       0.0015
     29  N          0.5320   67.7650   54.1070 N.3   113  TYR113     -0.1227
     30  CA         0.8200   67.8890   55.5400 C.3   113  TYR113      0.1736
     31  C          1.1590   66.5290   56.1730 C.2   113  TYR113      0.2596
     32  O          0.7620   65.4880   55.6540 O.2   113  TYR113     -0.2718
     33  CB        -0.3460   68.6000   56.2770 C.3   113  TYR113      0.0548
     34  CG        -1.7470   67.9880   56.1440 C.ar  113  TYR113     -0.0200
     35  CD1       -2.0670   66.7560   56.7530 C.ar  113  TYR113     -0.0009
     36  CD2       -2.7640   68.6660   55.4720 C.ar  113  TYR113     -0.0009
     37  CE1       -3.3610   66.2310   56.6890 C.ar  113  TYR113      0.0417
     38  CE2       -4.0700   68.1500   55.4060 C.ar  113  TYR113      0.0417
     39  CZ        -4.3650   66.9350   56.0090 C.ar  113  TYR113      0.1957
     40  OH        -5.6480   66.4030   55.9230 O.3   113  TYR113     -0.2866
     41  N          1.8870   66.5320   57.2950 N.am  114  GLY114     -0.1942
     42  CA         2.3090   65.2720   57.8730 C.3   114  GLY114      0.2014
     43  C          2.3440   64.9720   59.3550 C.2   114  GLY114      0.2639
     44  O          3.3810   64.4930   59.8640 O.2   114  GLY114     -0.2714
     45  N          1.2260   65.2120   60.0460 N.am  115  GLY115     -0.1939
     46  CA         1.1750   64.8880   61.4530 C.3   115  GLY115      0.2014
     47  C          1.0250   63.3820   61.7490 C.2   115  GLY115      0.2639
     48  O         -0.0090   62.9590   62.2900 O.2   115  GLY115     -0.2714
     49  N          2.0390   62.5810   61.4010 N.am  116  GLY116     -0.1954
     50  CA         2.0140   61.1450   61.7000 C.3   116  GLY116      0.1869
     51  C          0.8090   60.3310   61.2420 C.2   116  GLY116      0.2309
     52  O          0.5060   59.2630   61.8090 O.2   116  GLY116     -0.2863
     53  N         -2.0970   60.9030   61.7500 N.3   118  TYR118     -0.1227
     54  CA        -3.2270   61.0140   62.6880 C.3   118  TYR118      0.1736
     55  C         -3.7000   62.4650   62.8260 C.2   118  TYR118      0.2596
     56  O         -4.7340   62.7340   63.4660 O.2   118  TYR118     -0.2718
     57  CB        -2.8730   60.4740   64.0840 C.3   118  TYR118      0.0548
     58  CG        -1.8670   61.3120   64.8270 C.ar  118  TYR118     -0.0200
     59  CD1       -2.2640   62.4180   65.5990 C.ar  118  TYR118     -0.0009
     60  CD2       -0.5190   61.0000   64.7640 C.ar  118  TYR118     -0.0009
     61  CE1       -1.3130   63.1950   66.3050 C.ar  118  TYR118      0.0417
     62  CE2        0.4370   61.7450   65.4500 C.ar  118  TYR118      0.0417
     63  CZ         0.0440   62.8350   66.2130 C.ar  118  TYR118      0.1957
     64  OH         1.0260   63.5480   66.8540 O.3   118  TYR118     -0.2866
     65  N         -2.9380   63.3930   62.2550 N.am  119  SER119     -0.1938
     66  CA        -3.3070   64.8060   62.3300 C.3   119  SER119      0.2055
     67  C         -2.7110   65.6090   61.1780 C.2   119  SER119      0.2643
     68  O         -1.8800   65.0890   60.4000 O.2   119  SER119     -0.2714
     69  CB        -2.8430   65.4260   63.6580 C.3   119  SER119      0.2130
     70  OG        -1.4270   65.3420   63.7510 O.3   119  SER119     -0.2179
     71  N         -3.1150   66.8830   61.1200 N.am  120  GLY120     -0.1954
     72  CA        -2.6550   67.8040   60.0890 C.3   120  GLY120      0.1869
     73  C         -3.8180   68.5640   59.4480 C.2   120  GLY120      0.2309
     74  O         -4.9310   68.0540   59.3930 O.2   120  GLY120     -0.2863
     75  N         -3.2160   75.6520   58.2030 N.3   124  LEU124     -0.1245
     76  CA        -2.3500   76.2340   59.2210 C.3   124  LEU124      0.1561
     77  C         -1.6480   77.4590   58.6750 C.2   124  LEU124      0.2260
     78  O         -1.2640   77.4960   57.5000 O.2   124  LEU124     -0.2867
     79  CB        -1.2740   75.2330   59.6640 C.3   124  LEU124      0.0270
     80  CG        -1.7430   73.8610   60.1430 C.3   124  LEU124      0.0019
     81  CD1       -0.5030   73.0190   60.4940 C.3   124  LEU124      0.0001
     82  CD2       -2.6900   74.0080   61.3390 C.3   124  LEU124      0.0001
     83  N          1.3880   76.9570   56.8420 N.3   127  TYR127     -0.1241
     84  CA         1.2530   76.3400   55.5180 C.3   127  TYR127      0.1605
     85  C          0.6870   77.3110   54.4760 C.2   127  TYR127      0.2264
     86  O          0.2930   76.8830   53.3930 O.2   127  TYR127     -0.2867
     87  CB         0.3370   75.0950   55.5370 C.3   127  TYR127      0.0534
     88  CG         0.8390   73.9060   56.3120 C.ar  127  TYR127     -0.0201
     89  CD1        2.2070   73.6980   56.5340 C.ar  127  TYR127     -0.0009
     90  CD2       -0.0710   72.9760   56.8460 C.ar  127  TYR127     -0.0009
     91  CE1        2.6570   72.5880   57.2830 C.ar  127  TYR127      0.0417
     92  CE2        0.3600   71.8790   57.5840 C.ar  127  TYR127      0.0417
     93  CZ         1.7220   71.6870   57.8100 C.ar  127  TYR127      0.1957
     94  OH         2.1170   70.6250   58.6040 O.3   127  TYR127     -0.2866
     95  N          6.1910   67.0980   54.5040 N.3   196  GLU196     -0.1231
     96  CA         7.0770   66.9030   55.6380 C.3   196  GLU196      0.1699
     97  C          6.5630   65.8060   56.5590 C.2   196  GLU196      0.2592
     98  O          5.3510   65.6520   56.7290 O.2   196  GLU196     -0.2718
     99  CB         7.2260   68.2340   56.4000 C.3   196  GLU196      0.0402
    100  CG         8.2360   68.2080   57.5590 C.3   196  GLU196      0.1161
    101  CD         7.5980   67.8140   58.8860 C.2   196  GLU196      0.3649
    102  OE1        6.3550   67.7810   58.9310 O.co2 196  GLU196     -0.2457
    103  OE2        8.3310   67.5530   59.8770 O.co2 196  GLU196     -0.2457
    104  N          7.4920   65.0720   57.1670 N.am  197  SER197     -0.1952
    105  CA         7.1710   63.9800   58.0780 C.3   197  SER197      0.1924
    106  C          6.2420   62.9700   57.3630 C.2   197  SER197      0.2314
    107  O          6.6310   62.4210   56.3350 O.2   197  SER197     -0.2863
    108  CB         6.5430   64.5460   59.3630 C.3   197  SER197      0.2116
    109  OG         6.5600   63.5830   60.4180 O.3   197  SER197     -0.2180
    110  N          2.3090   55.6890   65.6770 N.3   287  PHE287     -0.1241
    111  CA         0.9430   56.1560   65.4860 C.3   287  PHE287      0.1605
    112  C          0.0480   54.9840   65.0990 C.2   287  PHE287      0.2264
    113  O          0.4750   54.0590   64.4110 O.2   287  PHE287     -0.2867
    114  CB         0.9820   57.2560   64.4280 C.3   287  PHE287      0.0534
    115  CG         2.1830   58.1580   64.5720 C.ar  287  PHE287     -0.0203
    116  CD1        2.4010   58.8600   65.7620 C.ar  287  PHE287     -0.0042
    117  CD2        3.1080   58.2900   63.5380 C.ar  287  PHE287     -0.0042
    118  CE1        3.5160   59.6780   65.9150 C.ar  287  PHE287     -0.0003
    119  CE2        4.2260   59.1060   63.6760 C.ar  287  PHE287     -0.0003
    120  CZ         4.4380   59.8080   64.8660 C.ar  287  PHE287     -0.0000
    121  N         10.8630   66.4150   69.8770 N.3   327  PHE327     -0.1227
    122  CA         9.4170   66.5740   70.0690 C.3   327  PHE327      0.1736
    123  C          8.7920   65.3320   70.7220 C.2   327  PHE327      0.2595
    124  O          8.0170   65.4310   71.6840 O.2   327  PHE327     -0.2718
    125  CB         8.7560   66.8510   68.7120 C.3   327  PHE327      0.0547
    126  CG         7.2720   66.9890   68.7720 C.ar  327  PHE327     -0.0202
    127  CD1        6.6800   68.2060   69.1280 C.ar  327  PHE327     -0.0042
    128  CD2        6.4460   65.8880   68.5010 C.ar  327  PHE327     -0.0042
    129  CE1        5.2710   68.3120   69.2120 C.ar  327  PHE327     -0.0003
    130  CE2        5.0510   66.0020   68.5870 C.ar  327  PHE327     -0.0003
    131  CZ         4.4790   67.2120   68.9410 C.ar  327  PHE327     -0.0000
    132  N          9.1620   64.1590   70.2220 N.am  328  PHE328     -0.1976
    133  CA         8.6110   62.9240   70.7260 C.3   328  PHE328      0.1639
    134  C          9.0730   62.5070   72.0890 C.2   328  PHE328      0.2290
    135  O          8.3560   61.7790   72.7570 O.2   328  PHE328     -0.2864
    136  CB         8.8100   61.8190   69.6850 C.3   328  PHE328      0.0560
    137  CG         8.2690   62.1970   68.3530 C.ar  328  PHE328     -0.0200
    138  CD1        9.0410   62.9570   67.4720 C.ar  328  PHE328     -0.0042
    139  CD2        6.9390   61.9160   68.0280 C.ar  328  PHE328     -0.0042
    140  CE1        8.4920   63.4580   66.2600 C.ar  328  PHE328     -0.0003
    141  CE2        6.3810   62.3980   66.8480 C.ar  328  PHE328     -0.0003
    142  CZ         7.1590   63.1760   65.9560 C.ar  328  PHE328     -0.0000
    143  N          9.8910   77.0780   71.7990 N.3   429  TRP429     -0.1241
    144  CA        10.1950   75.7930   72.4210 C.3   429  TRP429      0.1605
    145  C         11.5320   75.9280   73.1530 C.2   429  TRP429      0.2264
    146  O         12.3690   76.7490   72.7740 O.2   429  TRP429     -0.2867
    147  CB        10.2500   74.6810   71.3540 C.3   429  TRP429      0.0550
    148  CG         8.8780   74.3350   70.7920 C.ar  429  TRP429      0.0003
    149  CD1        8.3610   74.7160   69.5810 C.ar  429  TRP429      0.0946
    150  CD2        7.8580   73.5510   71.4300 C.ar  429  TRP429      0.0152
    151  NE1        7.0880   74.2110   69.4240 N.ar  429  TRP429     -0.2442
    152  CE2        6.7500   73.4960   70.5410 C.ar  429  TRP429      0.0810
    153  CE3        7.7690   72.8920   72.6600 C.ar  429  TRP429      0.0012
    154  CZ2        5.5660   72.8010   70.8470 C.ar  429  TRP429      0.0191
    155  CZ3        6.5880   72.1920   72.9710 C.ar  429  TRP429      0.0001
    156  CH2        5.5050   72.1570   72.0630 C.ar  429  TRP429      0.0015
    157  N         11.6780   68.9190   64.7700 N.3   437  HIS437     -0.1226
    158  CA        10.9220   68.2510   63.7190 C.3   437  HIS437      0.1752
    159  C          9.8270   69.2100   63.2690 C.2   437  HIS437      0.2597
    160  O          9.0470   69.6790   64.0840 O.2   437  HIS437     -0.2718
    161  CB        10.2820   66.9810   64.2820 C.3   437  HIS437      0.0759
    162  CG         9.7540   66.0500   63.2390 C.ar  437  HIS437      0.0818
    163  ND1       10.5100   65.6370   62.1640 N.ar  437  HIS437     -0.2268
    164  CD2        8.5680   65.3960   63.1420 C.ar  437  HIS437      0.1154
    165  CE1        9.8170   64.7650   61.4510 C.ar  437  HIS437      0.1986
    166  NE2        8.6370   64.5990   62.0230 N.ar  437  HIS437     -0.2212
    167  N          9.7780   69.4990   61.9780 N.am  438  GLY438     -0.1942
    168  CA         8.7510   70.3860   61.4620 C.3   438  GLY438      0.2014
    169  C          9.1430   71.8520   61.4120 C.2   438  GLY438      0.2638
    170  O          8.4330   72.6670   60.8210 O.2   438  GLY438     -0.2714
    171  N         10.2780   72.2130   61.9980 N.am  439  TYR439     -0.1973
    172  CA        10.6080   73.6120   61.9820 C.3   439  TYR439      0.1639
    173  C         11.3740   74.1830   60.8080 C.2   439  TYR439      0.2290
    174  O         11.7770   75.3450   60.8400 O.2   439  TYR439     -0.2864
    175  CB        11.2050   74.0110   63.3360 C.3   439  TYR439      0.0560
    176  CG        10.0860   74.2170   64.3300 C.ar  439  TYR439     -0.0198
    177  CD1        9.4560   73.1230   64.9490 C.ar  439  TYR439     -0.0009
    178  CD2        9.5410   75.4870   64.5290 C.ar  439  TYR439     -0.0009
    179  CE1        8.2920   73.2990   65.7440 C.ar  439  TYR439      0.0417
    180  CE2        8.3780   75.6720   65.3050 C.ar  439  TYR439      0.0417
    181  CZ         7.7630   74.5750   65.9020 C.ar  439  TYR439      0.1957
    182  OH         6.5970   74.7640   66.6000 O.3   439  TYR439     -0.2866
@<TRIPOS>BOND
     1    86    85    2
     2    29    30    1
     3    85    84    1
     4    95    96    1
     5    38    36   ar
     6    38    39   ar
     7    36    34   ar
     8    84    87    1
     9    84    83    1
    10    87    88    1
    11    30    31    1
    12    30    33    1
    13    96    99    1
    14    96    97    1
    15    32    31    2
    16    40    39    1
    17    39    37   ar
    18    34    33    1
    19    34    35   ar
    20    31    41   am
    21    88    89   ar
    22    88    90   ar
    23   107   106    2
    24    99   100    1
    25    89    91   ar
    26    97    98    2
    27    97   104   am
    28    37    35   ar
    29    90    92   ar
    30   104   105    1
    31    91    93   ar
    32    41    42    1
    33   106   105    1
    34    78    77    2
    35   100   101    1
    36    92    93   ar
    37    93    94    1
    38    42    43    1
    39   105   108    1
    40    75    76    1
    41    77    76    1
    42   101   102   ar
    43   101   103   ar
    44    76    79    1
    45    43    44    2
    46    43    45   am
    47   108   109    1
    48    74    73    2
    49    73    72    1
    50    79    80    1
    51    45    46    1
    52    72    71    1
    53    80    81    1
    54    80    82    1
    55    68    67    2
    56   173   174    2
    57   173   172    1
    58   170   169    2
    59    71    67   am
    60    67    66    1
    61    51    50    1
    62    51    52    2
    63    49    50    1
    64    49    47   am
    65   169   168    1
    66   169   171   am
    67   165   166   ar
    68   165   163   ar
    69    46    47    1
    70   168   167    1
    71    27    28   ar
    72    27    25   ar
    73    47    48    2
    74    53    54    1
    75   167   159   am
    76   172   171    1
    77   172   175    1
    78    28    26   ar
    79   166   164   ar
    80   163   162   ar
    81    65    66    1
    82    65    55   am
    83    66    69    1
    84    25    22   ar
    85    54    55    1
    86    54    57    1
    87    55    56    2
    88   164   162   ar
    89   162   161    1
    90   159   158    1
    91   159   160    2
    92    26    24   ar
    93   175   176    1
    94   117   119   ar
    95   117   115   ar
    96    69    70    1
    97   119   120   ar
    98   158   161    1
    99   158   157    1
   100    22    24   ar
   101    22    20   ar
   102    18    17    2
   103    57    58    1
   104    24    23   ar
   105   176   178   ar
   106   176   177   ar
   107   113   112    2
   108   114   115    1
   109   114   111    1
   110   178   180   ar
   111   115   116   ar
   112    16    17    1
   113    16    19    1
   114    16    15    1
   115    60    58   ar
   116    60    62   ar
   117    58    59   ar
   118   120   118   ar
   119   177   179   ar
   120    20    19    1
   121    20    21   ar
   122   112   111    1
   123   180   181   ar
   124    62    63   ar
   125   111   110    1
   126    23    21   ar
   127    59    61   ar
   128   179   181   ar
   129   116   118   ar
   130   181   182    1
   131   142   140   ar
   132   142   141   ar
   133    63    61   ar
   134    63    64    1
   135   140   138   ar
   136   141   139   ar
   137   138   137   ar
   138   139   137   ar
   139   137   136    1
   140    12    11    2
   141   128   130   ar
   142   128   126   ar
   143   130   131   ar
   144   125   126    1
   145   125   122    1
   146   126   127   ar
   147   131   129   ar
   148   127   129   ar
   149    11    10    1
   150   151   149   ar
   151   151   152   ar
   152   149   148   ar
   153   136   133    1
   154   121   122    1
   155     1     2    1
   156    10     9    1
   157    10    13    1
   158   122   123    1
   159   132   123   am
   160   132   133    1
   161     5     2    1
   162     5     6    1
   163   152   154   ar
   164   152   150   ar
   165   123   124    2
   166   133   134    1
   167   148   147    1
   168   148   150   ar
   169   154   156   ar
   170     2     3    1
   171     8     6   ar
   172    13    14    1
   173     6     7   ar
   174   147   144    1
   175   150   153   ar
   176     4     3    2
   177   143   144    1
   178   156   155   ar
   179   134   135    2
   180   144   145    1
   181   153   155   ar
   182   146   145    2
