@<TRIPOS>MOLECULE
tmp/1gpuB00.pdb
 97 93 0 0 0
SMALL
GASTEIGER

@<TRIPOS>ATOM
      1  N         -7.3470   67.9990   16.9460 N.3   379  ALA379     -0.1231
      2  CA        -6.1420   67.3180   16.5070 C.3   379  ALA379      0.1694
      3  C         -6.5720   65.9730   15.9290 C.2   379  ALA379      0.2592
      4  O         -6.3600   64.9330   16.5390 O.2   379  ALA379     -0.2718
      5  CB        -5.1920   67.1170   17.6780 C.3   379  ALA379      0.0304
      6  N         -7.1980   66.0200   14.7540 N.am  380  ASP380     -0.1960
      7  CA        -7.6850   64.8330   14.0480 C.3   380  ASP380      0.1840
      8  C         -8.7150   64.0150   14.8300 C.2   380  ASP380      0.2621
      9  O         -8.7720   62.7920   14.6980 O.2   380  ASP380     -0.2715
     10  CB        -6.5090   63.9320   13.6460 C.3   380  ASP380      0.1450
     11  CG        -6.8880   62.9260   12.5640 C.2   380  ASP380      0.3671
     12  OD1       -7.4320   63.3520   11.5230 O.co2 380  ASP380     -0.2456
     13  OD2       -6.6430   61.7150   12.7460 O.co2 380  ASP380     -0.2456
     14  N         -9.5280   64.6870   15.6430 N.am  381  LEU381     -0.1977
     15  CA       -10.5560   64.0060   16.4260 C.3   381  LEU381      0.1596
     16  C        -11.8770   64.7740   16.4000 C.2   381  LEU381      0.2287
     17  O        -12.6370   64.7610   17.3670 O.2   381  LEU381     -0.2864
     18  CB       -10.0960   63.8260   17.8760 C.3   381  LEU381      0.0297
     19  CG        -9.0040   62.7780   18.1350 C.3   381  LEU381      0.0022
     20  CD1       -8.6050   62.8060   19.6070 C.3   381  LEU381      0.0001
     21  CD2       -9.5130   61.3910   17.7440 C.3   381  LEU381      0.0001
     22  N         -2.7850   65.1530   13.6610 N.3   414  ILE414     -0.1245
     23  CA        -2.3490   64.5340   14.9150 C.3   414  ILE414      0.1561
     24  C         -1.1190   65.2830   15.4320 C.2   414  ILE414      0.2260
     25  O          0.0080   64.7690   15.4060 O.2   414  ILE414     -0.2867
     26  CB        -2.0110   63.0340   14.7120 C.3   414  ILE414      0.0252
     27  CG1       -3.1930   62.3010   14.0610 C.3   414  ILE414      0.0019
     28  CG2       -1.7290   62.3800   16.0640 C.3   414  ILE414      0.0019
     29  CD1       -3.3590   62.5480   12.5660 C.3   414  ILE414      0.0001
     30  N         -0.8850   67.4990   18.7510 N.3   416  GLU416     -0.1245
     31  CA        -1.3290   68.1710   19.9690 C.3   416  GLU416      0.1567
     32  C         -0.4090   69.2860   20.4360 C.2   416  GLU416      0.2260
     33  O         -0.8600   70.3890   20.7360 O.2   416  GLU416     -0.2867
     34  CB        -1.4860   67.1720   21.1180 C.3   416  GLU416      0.0388
     35  CG        -2.5170   66.0800   20.9010 C.3   416  GLU416      0.1160
     36  CD        -1.9690   64.8980   20.1260 C.2   416  GLU416      0.3649
     37  OE1       -0.7360   64.8260   19.9360 O.co2 416  GLU416     -0.2457
     38  OE2       -2.7720   64.0310   19.7200 O.co2 416  GLU416     -0.2457
     39  N         -9.0590   67.3760   21.6820 N.3   439  THR439     -0.1203
     40  CA        -8.2880   66.1400   21.6550 C.3   439  THR439      0.1994
     41  C         -8.7180   65.3590   22.8820 C.2   439  THR439      0.2617
     42  O         -9.5010   65.8640   23.6880 O.2   439  THR439     -0.2717
     43  CB        -6.7580   66.3700   21.7210 C.3   439  THR439      0.1784
     44  OG1       -6.0910   65.1160   21.5280 O.3   439  THR439     -0.2211
     45  CG2       -6.3430   66.9420   23.0740 C.3   439  THR439      0.0376
     46  N         -8.2370   64.1270   23.0160 N.am  440  PHE440     -0.1975
     47  CA        -8.5810   63.3270   24.1840 C.3   440  PHE440      0.1639
     48  C         -7.7780   63.8770   25.3560 C.2   440  PHE440      0.2290
     49  O         -6.6060   64.2330   25.2000 O.2   440  PHE440     -0.2864
     50  CB        -8.2330   61.8460   23.9750 C.3   440  PHE440      0.0560
     51  CG        -9.0300   61.1720   22.8920 C.ar  440  PHE440     -0.0200
     52  CD1      -10.3580   61.5180   22.6600 C.ar  440  PHE440     -0.0042
     53  CD2       -8.4600   60.1560   22.1260 C.ar  440  PHE440     -0.0042
     54  CE1      -11.1120   60.8590   21.6810 C.ar  440  PHE440     -0.0003
     55  CE2       -9.2040   59.4900   21.1440 C.ar  440  PHE440     -0.0003
     56  CZ       -10.5340   59.8430   20.9220 C.ar  440  PHE440     -0.0000
     57  N         -4.2040   62.8860   25.8670 N.3   443  PHE443     -0.1241
     58  CA        -3.1640   63.3360   24.9550 C.3   443  PHE443      0.1605
     59  C         -2.8700   64.8300   25.0240 C.2   443  PHE443      0.2264
     60  O         -2.0090   65.3520   24.3060 O.2   443  PHE443     -0.2867
     61  CB        -3.4850   62.8410   23.5400 C.3   443  PHE443      0.0534
     62  CG        -3.5480   61.3320   23.4500 C.ar  443  PHE443     -0.0203
     63  CD1       -2.5380   60.5520   24.0110 C.ar  443  PHE443     -0.0042
     64  CD2       -4.6290   60.6910   22.8580 C.ar  443  PHE443     -0.0042
     65  CE1       -2.6070   59.1520   23.9910 C.ar  443  PHE443     -0.0003
     66  CE2       -4.7080   59.2930   22.8320 C.ar  443  PHE443     -0.0003
     67  CZ        -3.6960   58.5250   23.4020 C.ar  443  PHE443     -0.0000
     68  N          0.5980   65.4070   25.7500 N.3   446  TYR446     -0.1241
     69  CA         1.6010   65.4620   24.6840 C.3   446  TYR446      0.1605
     70  C          2.0010   66.9100   24.4350 C.2   446  TYR446      0.2264
     71  O          3.0570   67.1860   23.8550 O.2   446  TYR446     -0.2867
     72  CB         1.0300   64.9060   23.3710 C.3   446  TYR446      0.0534
     73  CG         1.4140   63.4850   23.0190 C.ar  446  TYR446     -0.0201
     74  CD1        1.1540   62.4240   23.8880 C.ar  446  TYR446     -0.0009
     75  CD2        1.9890   63.1930   21.7780 C.ar  446  TYR446     -0.0009
     76  CE1        1.4510   61.1020   23.5250 C.ar  446  TYR446      0.0417
     77  CE2        2.2870   61.8800   21.4080 C.ar  446  TYR446      0.0417
     78  CZ         2.0130   60.8400   22.2820 C.ar  446  TYR446      0.1957
     79  OH         2.2560   59.5400   21.8820 O.3   446  TYR446     -0.2866
     80  N        -10.8640   51.2600   24.5850 N.3   475  ASP475     -0.1239
     81  CA        -9.5430   51.6840   24.1290 C.3   475  ASP475      0.1674
     82  C         -8.4660   51.3650   25.1580 C.2   475  ASP475      0.2266
     83  O         -7.2900   51.2340   24.8170 O.2   475  ASP475     -0.2867
     84  CB        -9.5380   53.1660   23.7620 C.3   475  ASP475      0.1410
     85  CG       -10.0820   53.4080   22.3640 C.2   475  ASP475      0.3668
     86  OD1      -10.1820   52.4270   21.5950 O.co2 475  ASP475     -0.2456
     87  OD2      -10.3960   54.5630   22.0250 O.co2 475  ASP475     -0.2456
     88  N         -5.3110   55.0930   26.8400 N.3   479  HIS479     -0.1241
     89  CA        -6.2280   56.1810   26.4980 C.3   479  HIS479      0.1621
     90  C         -7.0020   56.7220   27.6920 C.2   479  HIS479      0.2264
     91  O         -7.7500   57.6880   27.5630 O.2   479  HIS479     -0.2867
     92  CB        -7.2360   55.7180   25.4460 C.3   479  HIS479      0.0745
     93  CG        -6.6770   55.6400   24.0610 C.ar  479  HIS479      0.0817
     94  ND1       -5.5530   54.9050   23.7520 N.ar  479  HIS479     -0.2268
     95  CD2       -7.0940   56.1980   22.9000 C.ar  479  HIS479      0.1154
     96  CE1       -5.3020   55.0130   22.4600 C.ar  479  HIS479      0.1986
     97  NE2       -6.2210   55.7920   21.9200 N.ar  479  HIS479     -0.2212
@<TRIPOS>BOND
     1    12    11   ar
     2    11    13   ar
     3    11    10    1
     4    29    27    1
     5    10     7    1
     6    22    23    1
     7     7     6    1
     8     7     8    1
     9    27    26    1
    10     9     8    2
    11    26    23    1
    12    26    28    1
    13     6     3   am
    14     8    14   am
    15    23    24    1
    16    25    24    2
    17    14    15    1
    18     3     2    1
    19     3     4    2
    20    16    15    1
    21    16    17    2
    22    15    18    1
    23     2     1    1
    24     2     5    1
    25    21    19    1
    26    18    19    1
    27    19    20    1
    28    30    31    1
    29    38    36   ar
    30    37    36   ar
    31    31    32    1
    32    31    34    1
    33    36    35    1
    34    32    33    2
    35    35    34    1
    36    56    55   ar
    37    56    54   ar
    38    55    53   ar
    39    77    75   ar
    40    77    78   ar
    41    44    43    1
    42    86    85   ar
    43    40    39    1
    44    40    43    1
    45    40    41    1
    46    54    52   ar
    47    43    45    1
    48    75    73   ar
    49    79    78    1
    50    97    96   ar
    51    97    95   ar
    52    87    85   ar
    53    53    51   ar
    54    78    76   ar
    55    85    84    1
    56    96    94   ar
    57    52    51   ar
    58    66    64   ar
    59    66    67   ar
    60    64    62   ar
    61    41    46   am
    62    41    42    2
    63    51    50    1
    64    95    93   ar
    65    46    47    1
    66    73    72    1
    67    73    74   ar
    68    72    69    1
    69    67    65   ar
    70    62    61    1
    71    62    63   ar
    72    76    74   ar
    73    61    58    1
    74    94    93   ar
    75    84    81    1
    76    71    70    2
    77    50    47    1
    78    65    63   ar
    79    93    92    1
    80    81    80    1
    81    81    82    1
    82    47    48    1
    83    60    59    2
    84    70    69    1
    85    69    68    1
    86    83    82    2
    87    58    59    1
    88    58    57    1
    89    49    48    2
    90    92    89    1
    91    89    88    1
    92    89    90    1
    93    91    90    2
