@<TRIPOS>MOLECULE
tmp/1gpuB01.pdb
 144 136 0 0 0
SMALL
GASTEIGER

@<TRIPOS>ATOM
      1  N         23.4930   84.2790   27.5690 N.3    28  HIS28      -0.1241
      2  CA        24.0320   83.7590   26.3150 C.3    28  HIS28       0.1621
      3  C         24.4550   84.8420   25.3190 C.2    28  HIS28       0.2264
      4  O         23.6140   85.5400   24.7510 O.2    28  HIS28      -0.2867
      5  CB        22.9740   82.8620   25.6790 C.3    28  HIS28       0.0745
      6  CG        22.3470   81.9050   26.6440 C.ar   28  HIS28       0.0817
      7  ND1       21.6300   82.3220   27.7450 N.ar   28  HIS28      -0.2268
      8  CD2       22.3480   80.5510   26.6870 C.ar   28  HIS28       0.1154
      9  CE1       21.2170   81.2680   28.4250 C.ar   28  HIS28       0.1986
     10  NE2       21.6390   80.1810   27.8040 N.ar   28  HIS28      -0.2212
     11  N         24.4880   83.5310   20.2490 N.3    31  ALA31      -0.1245
     12  CA        23.5220   83.8290   19.2010 C.3    31  ALA31       0.1562
     13  C         23.3080   85.3250   18.9890 C.2    31  ALA31       0.2260
     14  O         23.1310   85.7690   17.8540 O.2    31  ALA31      -0.2867
     15  CB        22.1910   83.1270   19.4900 C.3    31  ALA31       0.0290
     16  N         14.5680   81.2260   19.5450 N.3    65  ASN65      -0.1240
     17  CA        15.7510   80.8160   20.2890 C.3    65  ASN65       0.1653
     18  C         15.8690   81.8510   21.4080 C.2    65  ASN65       0.2266
     19  O         16.7360   82.7240   21.4020 O.2    65  ASN65      -0.2867
     20  CB        17.0200   80.7490   19.4030 C.3    65  ASN65       0.1155
     21  CG        17.1540   81.9020   18.4000 C.2    65  ASN65       0.2627
     22  OD1       18.2130   82.0480   17.7720 O.2    65  ASN65      -0.2716
     23  ND2       16.1090   82.7010   18.2290 N.am   65  ASN65      -0.0877
     24  N         16.9730   82.0360   24.4470 N.3    67  HIS67      -0.1241
     25  CA        18.1760   82.2910   25.2320 C.3    67  HIS67       0.1621
     26  C         18.9620   83.4740   24.6720 C.2    67  HIS67       0.2264
     27  O         19.7810   84.0710   25.3710 O.2    67  HIS67      -0.2867
     28  CB        19.0720   81.0460   25.2790 C.3    67  HIS67       0.0745
     29  CG        19.4540   80.5130   23.9320 C.ar   67  HIS67       0.0817
     30  ND1       18.6080   79.7360   23.1690 N.ar   67  HIS67      -0.2268
     31  CD2       20.5940   80.6450   23.2120 C.ar   67  HIS67       0.1154
     32  CE1       19.2120   79.4100   22.0390 C.ar   67  HIS67       0.1986
     33  NE2       20.4180   79.9480   22.0400 N.ar   67  HIS67      -0.2212
     34  N         14.9600   85.0450   29.9520 N.3   101  HIS101     -0.1241
     35  CA        14.3260   84.5900   28.7190 C.3   101  HIS101      0.1621
     36  C         13.1620   85.5510   28.4930 C.2   101  HIS101      0.2264
     37  O         12.6080   86.0930   29.4520 O.2   101  HIS101     -0.2867
     38  CB        13.8580   83.1370   28.8310 C.3   101  HIS101      0.0745
     39  CG        14.9840   82.1470   28.7980 C.ar  101  HIS101      0.0817
     40  ND1       15.6740   81.7620   29.9290 N.ar  101  HIS101     -0.2268
     41  CD2       15.5900   81.5230   27.7590 C.ar  101  HIS101      0.1154
     42  CE1       16.6560   80.9440   29.5880 C.ar  101  HIS101      0.1986
     43  NE2       16.6270   80.7840   28.2770 N.ar  101  HIS101     -0.2212
     44  N         11.9580   80.3430   25.4110 N.3   114  GLY114     -0.1210
     45  CA        12.9770   79.8200   26.3090 C.3   114  GLY114      0.1940
     46  C         12.8830   78.3200   26.0960 C.2   114  GLY114      0.2454
     47  O         13.8970   77.6370   25.9170 O.2   114  GLY114     -0.2732
     48  N         11.6590   77.7680   26.1580 N.am  115  PRO115     -0.2717
     49  CA        11.4900   76.3290   25.9300 C.3   115  PRO115      0.1535
     50  C         11.5660   76.2180   24.4020 C.2   115  PRO115      0.2598
     51  O         10.6990   76.7370   23.6980 O.2   115  PRO115     -0.2715
     52  CB        10.0820   76.0560   26.4500 C.3   115  PRO115      0.0310
     53  CG         9.9080   77.1010   27.5320 C.3   115  PRO115      0.0237
     54  CD        10.4860   78.3260   26.8580 C.3   115  PRO115      0.0939
     55  N         12.6020   75.5660   23.8910 N.am  116  LEU116     -0.1978
     56  CA        12.8000   75.4490   22.4430 C.3   116  LEU116      0.1596
     57  C         11.6330   74.8830   21.6350 C.2   116  LEU116      0.2287
     58  O         10.9350   73.9710   22.0810 O.2   116  LEU116     -0.2864
     59  CB        14.0590   74.6210   22.1710 C.3   116  LEU116      0.0297
     60  CG        15.3220   75.2840   22.7270 C.3   116  LEU116      0.0022
     61  CD1       16.4340   74.2520   22.8760 C.3   116  LEU116      0.0001
     62  CD2       15.7420   76.4270   21.8050 C.3   116  LEU116      0.0001
     63  N         16.9400   78.6220   15.9540 N.3   154  GLY154     -0.1210
     64  CA        18.2130   77.9510   15.7840 C.3   154  GLY154      0.1956
     65  C         18.0610   76.4460   15.6490 C.2   154  GLY154      0.2612
     66  O         16.9530   75.9360   15.4570 O.2   154  GLY154     -0.2717
     67  N         19.1760   75.7290   15.7600 N.am  155  ASP155     -0.1959
     68  CA        19.1660   74.2740   15.6400 C.3   155  ASP155      0.1840
     69  C         18.3130   73.6170   16.7170 C.2   155  ASP155      0.2622
     70  O         17.6820   72.5910   16.4720 O.2   155  ASP155     -0.2715
     71  CB        20.5910   73.7220   15.7270 C.3   155  ASP155      0.1450
     72  CG        21.4920   74.2670   14.6450 C.2   155  ASP155      0.3671
     73  OD1       21.3040   73.9200   13.4640 O.co2 155  ASP155     -0.2456
     74  OD2       22.3910   75.0540   14.9760 O.co2 155  ASP155     -0.2456
     75  N         18.3130   74.2050   17.9090 N.am  156  GLY156     -0.1954
     76  CA        17.5280   73.6630   19.0080 C.3   156  GLY156      0.1869
     77  C         16.0470   73.5790   18.6810 C.2   156  GLY156      0.2309
     78  O         15.4120   72.5480   18.9110 O.2   156  GLY156     -0.2863
     79  N         13.3240   70.0500   18.0940 N.3   160  GLU160     -0.1245
     80  CA        12.1480   69.7370   18.8990 C.3   160  GLU160      0.1567
     81  C         10.9770   69.3510   18.0010 C.2   160  GLU160      0.2260
     82  O         10.6150   70.0900   17.0870 O.2   160  GLU160     -0.2867
     83  CB        11.7690   70.9390   19.7610 C.3   160  GLU160      0.0388
     84  CG        12.6750   71.1330   20.9690 C.3   160  GLU160      0.1160
     85  CD        12.4700   70.0600   22.0320 C.2   160  GLU160      0.3649
     86  OE1       11.6230   69.1650   21.8300 O.co2 160  GLU160     -0.2457
     87  OE2       13.1610   70.1120   23.0710 O.co2 160  GLU160     -0.2457
     88  N         19.2230   80.4910   12.2030 N.3   183  ASP183     -0.1239
     89  CA        20.6040   80.7860   12.5550 C.3   183  ASP183      0.1674
     90  C         21.3840   79.4850   12.4160 C.2   183  ASP183      0.2266
     91  O         21.4810   78.6980   13.3520 O.2   183  ASP183     -0.2867
     92  CB        20.6740   81.3180   13.9950 C.3   183  ASP183      0.1410
     93  CG        22.0710   81.7710   14.3850 C.2   183  ASP183      0.3668
     94  OD1       22.8670   82.0650   13.4710 O.co2 183  ASP183     -0.2456
     95  OD2       22.3660   81.8430   15.5990 O.co2 183  ASP183     -0.2456
     96  N         24.4280   78.0320   12.5750 N.3   185  ASN185     -0.1240
     97  CA        25.7910   78.1940   13.0830 C.3   185  ASN185      0.1653
     98  C         26.5320   76.9130   13.4530 C.2   185  ASN185      0.2266
     99  O         27.6220   76.9760   14.0210 O.2   185  ASN185     -0.2867
    100  CB        25.8080   79.1530   14.2840 C.3   185  ASN185      0.1155
    101  CG        24.9790   78.6520   15.4450 C.2   185  ASN185      0.2627
    102  OD1       24.7110   77.4640   15.5570 O.2   185  ASN185     -0.2716
    103  ND2       24.5860   79.5610   16.3280 N.am  185  ASN185     -0.0877
    104  N         26.3710   74.7770   15.8100 N.3   187  ILE187     -0.1231
    105  CA        26.7320   74.5620   17.2060 C.3   187  ILE187      0.1692
    106  C         25.5140   74.4590   18.1230 C.2   187  ILE187      0.2593
    107  O         24.5250   75.1620   17.9290 O.2   187  ILE187     -0.2718
    108  CB        27.6070   75.7450   17.7270 C.3   187  ILE187      0.0266
    109  CG1       29.0140   75.6770   17.1280 C.3   187  ILE187      0.0019
    110  CG2       27.6550   75.7420   19.2530 C.3   187  ILE187      0.0020
    111  CD1       29.8640   74.5470   17.6710 C.3   187  ILE187      0.0001
    112  N         25.5750   73.5550   19.0990 N.am  188  THR188     -0.1939
    113  CA        24.5220   73.4440   20.1060 C.3   188  THR188      0.2028
    114  C         25.2900   73.2240   21.4060 C.2   188  THR188      0.2642
    115  O         26.5270   73.2470   21.3990 O.2   188  THR188     -0.2714
    116  CB        23.5030   72.2940   19.8400 C.3   188  THR188      0.1808
    117  OG1       24.1650   71.0250   19.8410 O.3   188  THR188     -0.2208
    118  CG2       22.7900   72.5170   18.5030 C.3   188  THR188      0.0379
    119  N         24.5930   73.0270   22.5180 N.am  189  ILE189     -0.1977
    120  CA        25.2900   72.8630   23.7900 C.3   189  ILE189      0.1596
    121  C         26.3070   71.7220   23.8600 C.2   189  ILE189      0.2287
    122  O         27.3730   71.8780   24.4630 O.2   189  ILE189     -0.2864
    123  CB        24.2910   72.7170   24.9490 C.3   189  ILE189      0.0276
    124  CG1       23.5620   74.0470   25.1520 C.3   189  ILE189      0.0022
    125  CG2       25.0160   72.2830   26.2190 C.3   189  ILE189      0.0022
    126  CD1       22.5890   74.0560   26.3130 C.3   189  ILE189      0.0001
    127  N         28.7250   81.4900   15.4870 N.3   248  ILE248     -0.1245
    128  CA        28.2380   81.7960   16.8230 C.3   248  ILE248      0.1561
    129  C         29.2970   82.6140   17.5570 C.2   248  ILE248      0.2260
    130  O         30.4890   82.3150   17.4740 O.2   248  ILE248     -0.2867
    131  CB        27.9100   80.5060   17.6230 C.3   248  ILE248      0.0252
    132  CG1       27.1620   80.8740   18.9020 C.3   248  ILE248      0.0019
    133  CG2       29.1920   79.7460   17.9700 C.3   248  ILE248      0.0019
    134  CD1       26.7390   79.6850   19.7340 C.3   248  ILE248      0.0001
    135  N         28.1640   79.7240   23.7210 N.3   261  HIS261     -0.1241
    136  CA        26.7200   79.5690   23.6560 C.3   261  HIS261      0.1621
    137  C         26.0150   80.1870   24.8650 C.2   261  HIS261      0.2264
    138  O         25.1220   81.0180   24.7100 O.2   261  HIS261     -0.2867
    139  CB        26.3240   78.0970   23.5940 C.3   261  HIS261      0.0745
    140  CG        24.9540   77.8360   24.1390 C.ar  261  HIS261      0.0817
    141  ND1       23.8050   78.1050   23.4250 N.ar  261  HIS261     -0.2268
    142  CD2       24.5470   77.4270   25.3640 C.ar  261  HIS261      0.1154
    143  CE1       22.7520   77.8750   24.1870 C.ar  261  HIS261      0.1986
    144  NE2       23.1740   77.4630   25.3690 N.ar  261  HIS261     -0.2212
@<TRIPOS>BOND
     1    88    89    1
     2    90    89    1
     3    90    91    2
     4    89    92    1
     5    96    97    1
     6    97    98    1
     7    97   100    1
     8    98    99    2
     9    73    72   ar
    10    94    93   ar
    11    92    93    1
    12   100   101    1
    13    93    95   ar
    14    72    74   ar
    15    72    71    1
    16   101   102    2
    17   101   103   am
    18    66    65    2
    19   127   128    1
    20    68    71    1
    21    68    67    1
    22    68    69    1
    23    65    67   am
    24    65    64    1
    25    64    63    1
    26   104   105    1
    27    70    69    2
    28    69    75   am
    29   128   129    1
    30   128   131    1
    31    82    81    2
    32   109   111    1
    33   109   108    1
    34   105   108    1
    35   105   106    1
    36   130   129    2
    37   131   133    1
    38   131   132    1
    39   108   110    1
    40    22    21    2
    41    14    13    2
    42    75    76    1
    43   107   106    2
    44    81    80    1
    45    79    80    1
    46   106   112   am
    47    23    21   am
    48    21    20    1
    49   118   116    1
    50    77    78    2
    51    77    76    1
    52    80    83    1
    53   132   134    1
    54    13    12    1
    55   112   113    1
    56    12    15    1
    57    12    11    1
    58    20    17    1
    59    16    17    1
    60    83    84    1
    61   116   117    1
    62   116   113    1
    63   113   114    1
    64    17    18    1
    65    84    85    1
    66   115   114    2
    67    19    18    2
    68   114   119   am
    69    57    58    2
    70    57    56    1
    71    62    60    1
    72    86    85   ar
    73    85    87   ar
    74    32    33   ar
    75    32    30   ar
    76    33    31   ar
    77    59    56    1
    78    59    60    1
    79    56    55    1
    80   119   120    1
    81    60    61    1
    82    30    29   ar
    83    31    29   ar
    84   141   140   ar
    85   141   143   ar
    86   139   136    1
    87   139   140    1
    88   136   135    1
    89   136   137    1
    90    51    50    2
    91   120   121    1
    92   120   123    1
    93   121   122    2
    94    55    50   am
    95    29    28    1
    96   140   142   ar
    97   143   144   ar
    98    50    49    1
    99    24    25    1
   100    26    25    1
   101    26    27    2
   102   138   137    2
   103     4     3    2
   104   123   124    1
   105   123   125    1
   106   124   126    1
   107    25    28    1
   108     3     2    1
   109   142   144   ar
   110    44    45    1
   111     5     2    1
   112     5     6    1
   113    47    46    2
   114    49    48    1
   115    49    52    1
   116    46    48   am
   117    46    45    1
   118    48    54    1
   119     2     1    1
   120    52    53    1
   121     6     8   ar
   122     6     7   ar
   123     8    10   ar
   124    54    53    1
   125     7     9   ar
   126    41    43   ar
   127    41    39   ar
   128    10     9   ar
   129    43    42   ar
   130    36    35    1
   131    36    37    2
   132    35    38    1
   133    35    34    1
   134    39    38    1
   135    39    40   ar
   136    42    40   ar
