@<TRIPOS>MOLECULE
tmp/1gpyA00.pdb
 113 108 0 0 0
SMALL
GASTEIGER

@<TRIPOS>ATOM
      1  N         18.9210    2.1460   46.6730 N.3    54  TRP54      -0.1227
      2  CA        20.2660    2.5720   46.9510 C.3    54  TRP54       0.1737
      3  C         20.9380    1.5810   47.9090 C.2    54  TRP54       0.2595
      4  O         22.0140    1.0870   47.6050 O.2    54  TRP54      -0.2718
      5  CB        20.1370    3.9650   47.5100 C.3    54  TRP54       0.0564
      6  CG        21.3720    4.8650   47.5650 C.ar   54  TRP54       0.0003
      7  CD1       22.5900    4.4970   47.0630 C.ar   54  TRP54       0.0946
      8  CD2       21.3560    6.1350   48.0470 C.ar   54  TRP54       0.0152
      9  NE1       23.3240    5.5450   47.2070 N.ar   54  TRP54      -0.2442
     10  CE2       22.6470    6.5370   47.7810 C.ar   54  TRP54       0.0810
     11  CE3       20.5260    6.9110   48.8380 C.ar   54  TRP54       0.0012
     12  CZ2       23.1180    7.7180   48.3060 C.ar   54  TRP54       0.0191
     13  CZ3       20.9980    8.0980   49.3740 C.ar   54  TRP54       0.0001
     14  CH2       22.2810    8.4970   49.1050 C.ar   54  TRP54       0.0015
     15  N         20.3390    1.1490   49.0210 N.am   55  ILE55      -0.1980
     16  CA        20.9160    0.2010   50.0180 C.3    55  ILE55       0.1595
     17  C         21.2250   -1.0960   49.3130 C.2    55  ILE55       0.2287
     18  O         22.2710   -1.6990   49.5150 O.2    55  ILE55      -0.2864
     19  CB        19.8920   -0.0710   51.1870 C.3    55  ILE55       0.0276
     20  CG1       19.8730    1.1240   52.0850 C.3    55  ILE55       0.0022
     21  CG2       20.2120   -1.3010   52.0020 C.3    55  ILE55       0.0022
     22  CD1       18.5770    1.0800   52.9520 C.3    55  ILE55       0.0001
     23  N         24.2960   -0.6260   46.7190 N.3    58  GLN58      -0.1245
     24  CA        25.5740   -0.5060   47.4110 C.3    58  GLN58       0.1566
     25  C         25.9310   -1.7340   48.1650 C.2    58  GLN58       0.2260
     26  O         27.0990   -2.0810   48.1510 O.2    58  GLN58      -0.2867
     27  CB        25.6220    0.6250   48.4150 C.3    58  GLN58       0.0367
     28  CG        25.4180    2.0100   47.7860 C.3    58  GLN58       0.0905
     29  CD        26.3950    2.3220   46.6610 C.2    58  GLN58       0.2608
     30  OE1       27.6130    2.2980   46.8140 O.2    58  GLN58      -0.2717
     31  NE2       25.8190    2.6250   45.5090 N.am   58  GLN58      -0.0878
     32  N         30.9420    6.1440   40.9160 N.3   142  TYR142     -0.1241
     33  CA        30.7860    7.1250   41.9870 C.3   142  TYR142      0.1605
     34  C         31.2360    8.4680   41.4610 C.2   142  TYR142      0.2264
     35  O         32.2970    8.5510   40.8570 O.2   142  TYR142     -0.2867
     36  CB        31.6510    6.7730   43.1950 C.3   142  TYR142      0.0534
     37  CG        31.5010    5.3940   43.8130 C.ar  142  TYR142     -0.0201
     38  CD1       32.1730    4.3190   43.2800 C.ar  142  TYR142     -0.0009
     39  CD2       30.6660    5.2470   44.9080 C.ar  142  TYR142     -0.0009
     40  CE1       31.9900    3.1000   43.8560 C.ar  142  TYR142      0.0417
     41  CE2       30.4870    4.0230   45.4820 C.ar  142  TYR142      0.0417
     42  CZ        31.1490    2.9770   44.9370 C.ar  142  TYR142      0.1957
     43  OH        30.9380    1.7310   45.4780 O.3   142  TYR142     -0.2866
     44  N         27.2280   11.6810   55.8610 N.3   180  ARG180     -0.1245
     45  CA        27.8140   10.4470   56.3700 C.3   180  ARG180      0.1563
     46  C         29.0580   10.7780   57.2190 C.2   180  ARG180      0.2260
     47  O         30.1940   10.6810   56.7330 O.2   180  ARG180     -0.2867
     48  CB        28.1730    9.5030   55.1950 C.3   180  ARG180      0.0307
     49  CG        27.0300    8.9510   54.3860 C.3   180  ARG180      0.0489
     50  CD        26.4070    7.7490   54.9930 C.3   180  ARG180      0.2205
     51  NE        25.2660    7.3800   54.1990 N.pl3 180  ARG180     -0.0865
     52  CZ        24.0330    7.1890   54.7020 C.cat 180  ARG180      0.5346
     53  NH1       23.7020    7.4560   55.9650 N.pl3 180  ARG180      0.1354
     54  NH2       23.0640    6.8280   53.8750 N.pl3 180  ARG180      0.1354
     55  N         32.5150    8.8060   57.7600 N.3   183  PHE183     -0.1298
     56  CA        33.4730    8.7460   56.7010 C.3   183  PHE183      0.1290
     57  C         34.2490   10.0080   56.6170 C.3   183  PHE183      0.2013
     58  O         34.9700   10.0560   55.6420 O.3   183  PHE183     -0.2188
     59  CB        32.7800    8.4560   55.3430 C.3   183  PHE183      0.0480
     60  CG        32.1190    7.0920   55.2490 C.ar  183  PHE183     -0.0206
     61  CD1       32.8060    5.9330   55.5860 C.ar  183  PHE183     -0.0042
     62  CD2       30.8130    7.0070   54.8160 C.ar  183  PHE183     -0.0042
     63  CE1       32.1930    4.7020   55.4900 C.ar  183  PHE183     -0.0003
     64  CE2       30.2250    5.7640   54.7270 C.ar  183  PHE183     -0.0003
     65  CZ        30.8960    4.6210   55.0640 C.ar  183  PHE183     -0.0000
     66  N         26.1540   12.2940   50.6020 N.3   214  ASP214     -0.1239
     67  CA        25.7080   11.4150   49.5660 C.3   214  ASP214      0.1674
     68  C         24.3660   11.8040   49.0450 C.2   214  ASP214      0.2266
     69  O         23.4380   12.0330   49.8030 O.2   214  ASP214     -0.2867
     70  CB        25.5500    9.9400   50.0320 C.3   214  ASP214      0.1410
     71  CG        26.8070    9.1560   50.3780 C.2   214  ASP214      0.3668
     72  OD1       27.8830    9.6860   50.2410 O.co2 214  ASP214     -0.2456
     73  OD2       26.7690    8.0040   50.8350 O.co2 214  ASP214     -0.2456
     74  N         25.9840    6.4720   43.8970 N.3   227  THR227     -0.1218
     75  CA        26.1080    7.6200   44.7700 C.3   227  THR227      0.1862
     76  C         26.9210    8.7790   44.1660 C.2   227  THR227      0.2287
     77  O         27.8810    8.5600   43.3970 O.2   227  THR227     -0.2866
     78  CB        26.7420    7.2050   46.2120 C.3   227  THR227      0.1770
     79  OG1       28.1690    7.2180   46.1290 O.3   227  THR227     -0.2211
     80  CG2       26.4390    5.7890   46.6700 C.3   227  THR227      0.0375
     81  N         29.0600   11.4550   46.0270 N.3   229  ARG229     -0.1245
     82  CA        29.6350   11.8330   47.3110 C.3   229  ARG229      0.1563
     83  C         30.3100   13.2200   47.2370 C.2   229  ARG229      0.2260
     84  O         31.2930   13.4170   46.5290 O.2   229  ARG229     -0.2867
     85  CB        30.6230   10.7470   47.6940 C.3   229  ARG229      0.0307
     86  CG        31.4330   10.9680   48.9580 C.3   229  ARG229      0.0489
     87  CD        30.7650   10.2410   50.0990 C.3   229  ARG229      0.2205
     88  NE        31.4560    9.0480   50.5500 N.pl3 229  ARG229     -0.0865
     89  CZ        30.8890    7.9170   50.9860 C.cat 229  ARG229      0.5346
     90  NH1       29.6000    7.6210   51.0820 N.pl3 229  ARG229      0.1354
     91  NH2       31.7610    7.0220   51.3380 N.pl3 229  ARG229      0.1354
     92  N         39.8220    3.0560   51.3350 N.3   296  ARG296     -0.1231
     93  CA        39.0300    2.5020   52.4560 C.3   296  ARG296      0.1694
     94  C         38.1510    1.3460   51.9640 C.2   296  ARG296      0.2591
     95  O         38.1760    0.2410   52.5260 O.2   296  ARG296     -0.2718
     96  CB        38.1240    3.6130   53.0590 C.3   296  ARG296      0.0321
     97  CG        37.5570    3.3010   54.4900 C.3   296  ARG296      0.0489
     98  CD        36.0290    3.3740   54.4880 C.3   296  ARG296      0.2205
     99  NE        35.6060    3.3520   53.1000 N.pl3 296  ARG296     -0.0865
    100  CZ        34.3910    3.4160   52.5820 C.cat 296  ARG296      0.5346
    101  NH1       33.3100    3.5190   53.3670 N.pl3 296  ARG296      0.1354
    102  NH2       34.1350    3.3830   51.2670 N.pl3 296  ARG296      0.1354
    103  N         37.6190    1.7170   50.3600 N.am  297  ARG297     -0.1980
    104  CA        36.6930    0.7660   49.7700 C.3   297  ARG297      0.1597
    105  C         37.5520   -0.3590   49.2630 C.2   297  ARG297      0.2287
    106  O         37.1650   -1.4970   49.4630 O.2   297  ARG297     -0.2864
    107  CB        35.9630    1.3190   48.5960 C.3   297  ARG297      0.0334
    108  CG        34.5490    1.6010   48.9530 C.3   297  ARG297      0.0492
    109  CD        33.6920    2.0690   47.7880 C.3   297  ARG297      0.2205
    110  NE        33.9580    3.4770   47.4790 N.pl3 297  ARG297     -0.0865
    111  CZ        33.2380    4.4160   48.0980 C.cat 297  ARG297      0.5346
    112  NH1       32.2320    4.1350   48.9030 N.pl3 297  ARG297      0.1354
    113  NH2       33.5080    5.6640   47.8720 N.pl3 297  ARG297      0.1354
@<TRIPOS>BOND
     1    35    34    2
     2    32    33    1
     3    34    33    1
     4    33    36    1
     5    36    37    1
     6    38    37   ar
     7    38    40   ar
     8    77    76    2
     9    37    39   ar
    10    40    42   ar
    11    74    75    1
    12    76    75    1
    13    75    78    1
    14    39    41   ar
    15    42    43    1
    16    42    41   ar
    17    31    29   am
    18    81    82    1
    19    79    78    1
    20    78    80    1
    21    84    83    2
    22    29    30    2
    23    29    28    1
    24     1     2    1
    25    23    24    1
    26     2     5    1
    27     2     3    1
    28     7     9   ar
    29     7     6   ar
    30     9    10   ar
    31    83    82    1
    32    82    85    1
    33    24    25    1
    34    24    27    1
    35   110   109    1
    36   110   111    2
    37     5     6    1
    38     6     8   ar
    39     4     3    2
    40    85    86    1
    41    10     8   ar
    42    10    12   ar
    43    28    27    1
    44   109   108    1
    45   113   111    1
    46     3    15   am
    47     8    11   ar
    48   111   112    1
    49    26    25    2
    50    12    14   ar
    51   107   108    1
    52   107   104    1
    53    11    13   ar
    54    86    87    1
    55    15    16    1
    56    68    67    1
    57    68    69    2
    58    14    13   ar
    59   105   106    2
    60   105   104    1
    61    17    18    2
    62    17    16    1
    63    67    70    1
    64    67    66    1
    65   104   103    1
    66    16    19    1
    67    70    71    1
    68    87    88    1
    69    72    71   ar
    70   103    94   am
    71    71    73   ar
    72    88    89    2
    73    89    90    1
    74    89    91    1
    75    19    21    1
    76    19    20    1
    77   102   100    1
    78    92    93    1
    79    94    93    1
    80    94    95    2
    81    20    22    1
    82    93    96    1
    83   100    99    2
    84   100   101    1
    85    96    97    1
    86    99    98    1
    87    54    52    1
    88    51    52    2
    89    51    50    1
    90    49    50    1
    91    49    48    1
    92    98    97    1
    93    52    53    1
    94    64    62   ar
    95    64    65   ar
    96    62    60   ar
    97    65    63   ar
    98    48    45    1
    99    60    59    1
   100    60    61   ar
   101    59    56    1
   102    63    61   ar
   103    58    57    1
   104    44    45    1
   105    45    46    1
   106    57    56    1
   107    56    55    1
   108    47    46    2
