@<TRIPOS>MOLECULE
tmp/1gpzA01.pdb
 91 88 0 0 0
SMALL
GASTEIGER

@<TRIPOS>ATOM
      1  N         33.7080    8.9500   28.8370 N.3   262  ASP262     -0.1225
      2  CA        33.7160    7.8430   27.8910 C.3   262  ASP262      0.1805
      3  C         32.4150    7.0550   27.8430 C.2   262  ASP262      0.2597
      4  O         32.2700    6.0990   27.0790 O.2   262  ASP262     -0.2718
      5  CB        34.8130    6.8890   28.2800 C.3   262  ASP262      0.1424
      6  CG        34.5220    6.2360   29.5730 C.2   262  ASP262      0.3668
      7  OD1       33.4340    6.4910   30.1010 O.co2 262  ASP262     -0.2456
      8  OD2       35.3560    5.4740   30.0810 O.co2 262  ASP262     -0.2456
      9  N         31.4760    7.4340   28.6870 N.am  263  ASN263     -0.1974
     10  CA        30.2160    6.7340   28.7420 C.3   263  ASN263      0.1688
     11  C         29.1410    7.7740   28.5390 C.2   263  ASN263      0.2292
     12  O         29.1250    8.8210   29.1840 O.2   263  ASN263     -0.2864
     13  CB        30.0830    6.0510   30.1010 C.3   263  ASN263      0.1181
     14  CG        28.7550    5.3910   30.2890 C.2   263  ASN263      0.2629
     15  OD1       27.7290    6.0390   30.1680 O.2   263  ASN263     -0.2716
     16  ND2       28.7670    4.0960   30.5880 N.am  263  ASN263     -0.0877
     17  N         26.1690    8.0880   29.5470 N.3   265  THR265     -0.1203
     18  CA        25.3470    8.4840   30.6970 C.3   265  THR265      0.1994
     19  C         25.7750    9.7660   31.4090 C.2   265  THR265      0.2617
     20  O         25.0550   10.2740   32.2810 O.2   265  THR265     -0.2717
     21  CB        25.2490    7.3680   31.7630 C.3   265  THR265      0.1784
     22  OG1       26.5610    6.9350   32.1500 O.3   265  THR265     -0.2211
     23  CG2       24.4390    6.2080   31.2280 C.3   265  THR265      0.0376
     24  N         26.9390   10.2940   31.0450 N.am  266  PHE266     -0.1975
     25  CA        27.4040   11.5230   31.6650 C.3   266  PHE266      0.1639
     26  C         26.5580   12.6970   31.2070 C.2   266  PHE266      0.2290
     27  O         26.8250   13.8370   31.5850 O.2   266  PHE266     -0.2864
     28  CB        28.8810   11.7640   31.3450 C.3   266  PHE266      0.0560
     29  CG        29.8130   11.0530   32.2780 C.ar  266  PHE266     -0.0200
     30  CD1       30.7750   10.1760   31.7940 C.ar  266  PHE266     -0.0042
     31  CD2       29.6990   11.2290   33.6610 C.ar  266  PHE266     -0.0042
     32  CE1       31.6020    9.4900   32.6720 C.ar  266  PHE266     -0.0003
     33  CE2       30.5280   10.5390   34.5450 C.ar  266  PHE266     -0.0003
     34  CZ        31.4690    9.6750   34.0580 C.ar  266  PHE266     -0.0000
     35  N         22.9260   12.3120   31.0900 N.3   268  ASP268     -0.1239
     36  CA        21.5670   11.9760   31.4940 C.3   268  ASP268      0.1674
     37  C         20.9280   13.1730   32.2010 C.2   268  ASP268      0.2266
     38  O         21.5820   13.8290   33.0070 O.2   268  ASP268     -0.2867
     39  CB        21.5920   10.8120   32.4820 C.3   268  ASP268      0.1410
     40  CG        21.8330    9.4740   31.8180 C.2   268  ASP268      0.3668
     41  OD1       22.0220    8.4880   32.5780 O.co2 268  ASP268     -0.2456
     42  OD2       21.8220    9.4080   30.5600 O.co2 268  ASP268     -0.2456
     43  N         21.5850   14.8100   36.0320 N.3   271  LEU271     -0.1245
     44  CA        22.8510   14.4880   36.6770 C.3   271  LEU271      0.1561
     45  C         23.6180   15.7330   37.0730 C.2   271  LEU271      0.2260
     46  O         23.8720   16.6260   36.2570 O.2   271  LEU271     -0.2867
     47  CB        23.7290   13.5890   35.8010 C.3   271  LEU271      0.0270
     48  CG        25.2310   13.5710   36.1670 C.3   271  LEU271      0.0019
     49  CD1       25.5000   12.7260   37.3980 C.3   271  LEU271      0.0001
     50  CD2       26.0240   13.0410   35.0050 C.3   271  LEU271      0.0001
     51  N         32.2990   16.4010   36.3600 N.3   326  VAL326     -0.1231
     52  CA        31.4710   15.4420   37.0490 C.3   326  VAL326      0.1692
     53  C         32.2990   14.4640   37.8660 C.2   326  VAL326      0.2592
     54  O         33.3400   13.9620   37.4070 O.2   326  VAL326     -0.2718
     55  CB        30.6480   14.6350   36.0360 C.3   326  VAL326      0.0266
     56  CG1       29.8790   13.5510   36.7410 C.3   326  VAL326      0.0020
     57  CG2       29.7520   15.5630   35.2430 C.3   326  VAL326      0.0020
     58  N         31.8340   14.1930   39.0720 N.am  327  ARG327     -0.1966
     59  CA        32.4930   13.2500   39.9630 C.3   327  ARG327      0.1729
     60  C         31.7320   11.9270   39.7240 C.2   327  ARG327      0.2616
     61  O         30.5690   11.8010   40.1120 O.2   327  ARG327     -0.2715
     62  CB        32.3110   13.7380   41.4180 C.3   327  ARG327      0.0348
     63  CG        33.2860   13.2650   42.4860 C.3   327  ARG327      0.0492
     64  CD        33.2210   11.8150   42.6260 C.3   327  ARG327      0.2205
     65  NE        32.7300   11.3730   43.9290 N.pl3 327  ARG327     -0.0865
     66  CZ        31.6270   11.8240   44.5190 C.cat 327  ARG327      0.5346
     67  NH1       30.8830   12.7650   43.9350 N.pl3 327  ARG327      0.1354
     68  NH2       31.2390   11.2900   45.6770 N.pl3 327  ARG327      0.1354
     69  N         32.3860   10.9630   39.0650 N.am  328  ASP328     -0.1958
     70  CA        31.8450    9.6190   38.7790 C.3   328  ASP328      0.1825
     71  C         32.3120    8.7920   39.9750 C.2   328  ASP328      0.2464
     72  O         33.4620    8.4050   40.0680 O.2   328  ASP328     -0.2730
     73  CB        32.4230    9.1100   37.4450 C.3   328  ASP328      0.1450
     74  CG        32.5910    7.5930   37.3880 C.2   328  ASP328      0.3671
     75  OD1       32.0070    6.8420   38.2240 O.co2 328  ASP328     -0.2456
     76  OD2       33.3270    7.1570   36.4690 O.co2 328  ASP328     -0.2456
     77  N         31.4010    8.4920   40.9010 N.am  329  PRO329     -0.2715
     78  CA        31.6520    7.7370   42.1340 C.3   329  PRO329      0.1536
     79  C         31.9080    6.2440   41.9620 C.2   329  PRO329      0.2598
     80  O         32.4180    5.5850   42.8860 O.2   329  PRO329     -0.2715
     81  CB        30.3840    7.9890   42.9200 C.3   329  PRO329      0.0310
     82  CG        29.3450    7.7790   41.8270 C.3   329  PRO329      0.0237
     83  CD        29.9670    8.4240   40.5650 C.3   329  PRO329      0.0939
     84  N         31.5160    5.7160   40.7990 N.am  330  ASN330     -0.1973
     85  CA        31.7050    4.3080   40.5110 C.3   330  ASN330      0.1688
     86  C         33.0210    4.2350   39.7670 C.2   330  ASN330      0.2292
     87  O         33.1060    3.6780   38.6760 O.2   330  ASN330     -0.2864
     88  CB        30.5360    3.7500   39.6760 C.3   330  ASN330      0.1181
     89  CG        30.8070    3.7550   38.1800 C.2   330  ASN330      0.2629
     90  OD1       31.0170    4.8020   37.5740 O.2   330  ASN330     -0.2716
     91  ND2       30.8090    2.5700   37.5800 N.am  330  ASN330     -0.0877
@<TRIPOS>BOND
     1     4     3    2
     2     3     2    1
     3     3     9   am
     4     2     5    1
     5     2     1    1
     6     5     6    1
     7    11    10    1
     8    11    12    2
     9     9    10    1
    10    10    13    1
    11    17    18    1
    12     6     8   ar
    13     6     7   ar
    14    13    14    1
    15    15    14    2
    16    14    16   am
    17    42    40   ar
    18    18    19    1
    19    18    21    1
    20    24    19   am
    21    24    25    1
    22    35    36    1
    23    26    27    2
    24    26    25    1
    25    23    21    1
    26    28    25    1
    27    28    29    1
    28    19    20    2
    29    36    37    1
    30    36    39    1
    31    21    22    1
    32    30    29   ar
    33    30    32   ar
    34    40    39    1
    35    40    41   ar
    36    37    38    2
    37    29    31   ar
    38    32    34   ar
    39    31    33   ar
    40    34    33   ar
    41    50    48    1
    42    57    55    1
    43    47    48    1
    44    47    44    1
    45    43    44    1
    46    55    56    1
    47    55    52    1
    48    48    49    1
    49    46    45    2
    50    51    52    1
    51    76    74   ar
    52    44    45    1
    53    52    53    1
    54    74    73    1
    55    74    75   ar
    56    54    53    2
    57    73    70    1
    58    90    89    2
    59    91    89   am
    60    53    58   am
    61    89    88    1
    62    87    86    2
    63    70    69    1
    64    70    71    1
    65    69    60   am
    66    58    59    1
    67    88    85    1
    68    60    59    1
    69    60    61    2
    70    86    85    1
    71    59    62    1
    72    71    72    2
    73    71    77   am
    74    85    84    1
    75    83    77    1
    76    83    82    1
    77    84    79   am
    78    77    78    1
    79    62    63    1
    80    82    81    1
    81    79    78    1
    82    79    80    2
    83    78    81    1
    84    63    64    1
    85    64    65    1
    86    65    66    2
    87    67    66    1
    88    66    68    1
