@<TRIPOS>MOLECULE
tmp/1gq9A00.pdb
 131 127 0 0 0
SMALL
GASTEIGER

@<TRIPOS>ATOM
      1  N         18.9920   94.4350   70.5690 N.3     8  PRO8       -0.2102
      2  CA        17.7160   94.3280   69.8600 C.3     8  PRO8        0.1504
      3  C         16.6000   94.0690   70.8550 C.2     8  PRO8        0.2576
      4  O         16.6690   93.1160   71.6130 O.2     8  PRO8       -0.2718
      5  CB        17.9320   93.1270   68.9400 C.3     8  PRO8        0.0282
      6  CG        19.4150   93.0910   68.7460 C.3     8  PRO8        0.0208
      7  CD        19.8990   93.3610   70.1430 C.3     8  PRO8        0.0893
      8  N         15.5690   94.9050   70.8490 N.am    9  ALA9       -0.1966
      9  CA        14.4640   94.7350   71.7820 C.3     9  ALA9        0.1728
     10  C         13.1260   95.0000   71.1150 C.2     9  ALA9        0.2616
     11  O         12.5010   96.0390   71.3520 O.2     9  ALA9       -0.2715
     12  CB        14.6440   95.6720   72.9820 C.3     9  ALA9        0.0334
     13  N         12.6960   94.0630   70.2790 N.am   10  ARG10      -0.1977
     14  CA        11.4170   94.1760   69.5820 C.3    10  ARG10       0.1597
     15  C         10.3240   93.9640   70.6180 C.2    10  ARG10       0.2287
     16  O         10.5290   93.2470   71.5980 O.2    10  ARG10      -0.2864
     17  CB        11.2900   93.0860   68.5070 C.3    10  ARG10       0.0334
     18  CG        11.0110   91.6970   69.0870 C.3    10  ARG10       0.0492
     19  CD        11.1440   90.5560   68.0800 C.3    10  ARG10       0.2205
     20  NE        10.0330   90.4830   67.1390 N.pl3  10  ARG10      -0.0865
     21  CZ         9.8730   91.3040   66.1080 C.cat  10  ARG10       0.5346
     22  NH1       10.7590   92.2650   65.8790 N.pl3  10  ARG10       0.1354
     23  NH2        8.8260   91.1670   65.3050 N.pl3  10  ARG10       0.1354
     24  N          6.6360   89.5840   70.3020 N.3    13  SER13      -0.1202
     25  CA         7.3040   88.3300   70.6120 C.3    13  SER13       0.2020
     26  C          6.3260   87.1760   70.4560 C.2    13  SER13       0.2619
     27  O          5.3050   87.1170   71.1430 O.2    13  SER13      -0.2717
     28  CB         7.8460   88.3640   72.0460 C.3    13  SER13       0.2103
     29  OG         8.3750   87.1060   72.4360 O.3    13  SER13      -0.2182
     30  N          6.6390   86.2630   69.5430 N.am   14  SER14      -0.1937
     31  CA         5.7890   85.1070   69.3030 C.3    14  SER14       0.2055
     32  C          5.4820   84.3760   70.6110 C.2    14  SER14       0.2642
     33  O          4.3130   84.2030   70.9670 O.2    14  SER14      -0.2714
     34  CB         6.4640   84.1650   68.3010 C.3    14  SER14       0.2130
     35  OG         7.8400   84.0060   68.5950 O.3    14  SER14      -0.2179
     36  N          6.5220   83.9520   71.3270 N.am   15  ARG15      -0.1977
     37  CA         6.3230   83.2580   72.5970 C.3    15  ARG15       0.1597
     38  C          5.7430   84.2250   73.6310 C.2    15  ARG15       0.2287
     39  O          4.5300   84.4310   73.6800 O.2    15  ARG15      -0.2864
     40  CB         7.6440   82.6580   73.1120 C.3    15  ARG15       0.0334
     41  CG         8.1260   81.4290   72.3370 C.3    15  ARG15       0.0492
     42  CD         9.1860   80.6330   73.1120 C.3    15  ARG15       0.2205
     43  NE        10.5640   80.9120   72.7030 N.pl3  15  ARG15      -0.0865
     44  CZ        11.0740   80.6150   71.5080 C.cat  15  ARG15       0.5346
     45  NH1       10.3230   80.0270   70.5860 N.pl3  15  ARG15       0.1354
     46  NH2       12.3450   80.8910   71.2370 N.pl3  15  ARG15       0.1354
     47  N          8.1440   90.8200   76.0290 N.3    19  LYS19      -0.1231
     48  CA         9.1500   90.1630   76.8480 C.3    19  LYS19       0.1678
     49  C         10.2250   91.1000   77.4310 C.2    19  LYS19       0.2434
     50  O         10.7420   90.8520   78.5230 O.2    19  LYS19      -0.2733
     51  CB         9.7970   89.0470   76.0140 C.3    19  LYS19       0.0284
     52  CG        10.5130   87.9610   76.8050 C.3    19  LYS19       0.0035
     53  CD        10.8210   86.7460   75.9210 C.3    19  LYS19       0.0206
     54  CE        11.6530   87.1310   74.6980 C.3    19  LYS19       0.1093
     55  NZ        11.8680   85.9920   73.7570 N.3    19  LYS19      -0.1314
     56  N         10.5800   92.1840   76.7160 N.am   20  PRO20      -0.2729
     57  CA        11.6030   93.0890   77.2610 C.3    20  PRO20       0.1401
     58  C         11.1550   94.0350   78.3860 C.2    20  PRO20       0.2269
     59  O         11.9510   94.3790   79.2580 O.2    20  PRO20      -0.2865
     60  CB        12.0980   93.8370   76.0220 C.3    20  PRO20       0.0296
     61  CG        10.8890   93.8810   75.1550 C.3    20  PRO20       0.0237
     62  CD        10.3200   92.4850   75.2960 C.3    20  PRO20       0.0939
     63  N         11.9070   93.8180   60.0780 N.3    73  HIS73      -0.1226
     64  CA        13.0320   92.8830   60.2260 C.3    73  HIS73       0.1752
     65  C         12.6510   91.4490   60.5760 C.2    73  HIS73       0.2596
     66  O         11.8650   91.2110   61.4940 O.2    73  HIS73      -0.2718
     67  CB        14.0070   93.3830   61.2950 C.3    73  HIS73       0.0759
     68  CG        14.7690   94.6040   60.8960 C.ar   73  HIS73       0.0818
     69  ND1       15.4500   94.6960   59.7010 N.ar   73  HIS73      -0.2268
     70  CD2       15.0000   95.7660   61.5540 C.ar   73  HIS73       0.1154
     71  CE1       16.0710   95.8610   59.6420 C.ar   73  HIS73       0.1986
     72  NE2       15.8160   96.5290   60.7530 N.ar   73  HIS73      -0.2212
     73  N         13.2310   90.4970   59.8520 N.am   74  GLU74      -0.1965
     74  CA        12.9590   89.0880   60.1040 C.3    74  GLU74       0.1733
     75  C         13.8980   88.5470   61.1950 C.2    74  GLU74       0.2617
     76  O         13.5760   87.5660   61.8680 O.2    74  GLU74      -0.2715
     77  CB        13.1210   88.2630   58.8120 C.3    74  GLU74       0.0429
     78  CG        14.5700   87.9060   58.4460 C.3    74  GLU74       0.1163
     79  CD        14.6800   87.0080   57.2130 C.2    74  GLU74       0.3649
     80  OE1       13.9810   85.9720   57.1520 O.co2  74  GLU74      -0.2457
     81  OE2       15.4760   87.3330   56.3060 O.co2  74  GLU74      -0.2457
     82  N         15.0520   89.1890   61.3790 N.am   75  SER75      -0.1936
     83  CA        16.0050   88.7270   62.3890 C.3    75  SER75       0.2055
     84  C         16.7980   89.8440   63.0620 C.2    75  SER75       0.2643
     85  O         16.9260   90.9490   62.5240 O.2    75  SER75      -0.2714
     86  CB        16.9990   87.7440   61.7680 C.3    75  SER75       0.2130
     87  OG        17.9050   88.4240   60.9130 O.3    75  SER75      -0.2179
     88  N         17.3310   89.5330   64.2430 N.am   76  GLY76      -0.1954
     89  CA        18.1400   90.4880   64.9740 C.3    76  GLY76       0.1869
     90  C         19.2320   91.0010   64.0570 C.2    76  GLY76       0.2309
     91  O         19.2380   92.1800   63.7170 O.2    76  GLY76      -0.2863
     92  N         18.2230   93.8700   62.0420 N.3    79  ARG79      -0.1245
     93  CA        18.0010   95.0780   62.8220 C.3    79  ARG79       0.1563
     94  C         19.3230   95.7330   63.2100 C.2    79  ARG79       0.2260
     95  O         19.4190   96.9600   63.3010 O.2    79  ARG79      -0.2867
     96  CB        17.1820   94.7330   64.0590 C.3    79  ARG79       0.0307
     97  CG        16.7940   95.9050   64.9310 C.3    79  ARG79       0.0489
     98  CD        16.0030   95.4140   66.1470 C.3    79  ARG79       0.2205
     99  NE        14.5450   95.4990   65.9800 N.pl3  79  ARG79      -0.0865
    100  CZ        13.8220   94.8380   65.0760 C.cat  79  ARG79       0.5346
    101  NH1       14.4010   94.0130   64.2170 N.pl3  79  ARG79       0.1354
    102  NH2       12.5060   95.0020   65.0340 N.pl3  79  ARG79       0.1354
    103  N         21.5650   89.9990   73.0790 N.3    96  GLN96      -0.1231
    104  CA        20.1280   89.8090   73.0030 C.3    96  GLN96       0.1698
    105  C         19.4270   90.4880   74.1680 C.2    96  GLN96       0.2593
    106  O         20.0280   90.7260   75.2150 O.2    96  GLN96      -0.2718
    107  CB        19.7980   88.3200   72.9400 C.3    96  GLN96       0.0381
    108  CG        20.4080   87.6610   71.7190 C.3    96  GLN96       0.0905
    109  CD        20.3440   88.5590   70.4780 C.2    96  GLN96       0.2608
    110  OE1       19.2670   88.8690   69.9620 O.2    96  GLN96      -0.2717
    111  NE2       21.5050   88.9840   70.0050 N.am   96  GLN96      -0.0878
    112  N         18.1570   90.8180   73.9780 N.am   97  GLY97      -0.1942
    113  CA        17.4260   91.4910   75.0340 C.3    97  GLY97       0.2014
    114  C         16.7790   90.5740   76.0540 C.2    97  GLY97       0.2638
    115  O         16.3680   91.0390   77.1210 O.2    97  GLY97      -0.2714
    116  N         16.6970   89.2790   75.7390 N.am   98  ASP98      -0.1971
    117  CA        16.0680   88.2870   76.6210 C.3    98  ASP98       0.1709
    118  C         17.0300   87.5440   77.5550 C.2    98  ASP98       0.2293
    119  O         16.6890   86.4890   78.1020 O.2    98  ASP98      -0.2864
    120  CB        15.2980   87.2590   75.7820 C.3    98  ASP98       0.1436
    121  CG        16.2140   86.4030   74.9210 C.2    98  ASP98       0.3671
    122  OD1       16.9130   86.9650   74.0490 O.co2  98  ASP98      -0.2456
    123  OD2       16.2400   85.1670   75.1200 O.co2  98  ASP98      -0.2456
    124  N         12.8180   82.8880   77.7580 N.3   225  ASP225     -0.1239
    125  CA        11.7990   82.5830   76.7570 C.3   225  ASP225      0.1674
    126  C         10.6990   81.7950   77.4430 C.2   225  ASP225      0.2266
    127  O          9.5090   82.0470   77.2440 O.2   225  ASP225     -0.2867
    128  CB        12.3900   81.7640   75.6090 C.3   225  ASP225      0.1410
    129  CG        12.9800   82.6360   74.5230 C.2   225  ASP225      0.3668
    130  OD1       13.8950   83.4310   74.8270 O.co2 225  ASP225     -0.2456
    131  OD2       12.5240   82.5320   73.3650 O.co2 225  ASP225     -0.2456
@<TRIPOS>BOND
     1    81    79   ar
     2    80    79   ar
     3    79    78    1
     4    78    77    1
     5    77    74    1
     6    71    69   ar
     7    71    72   ar
     8    69    68   ar
     9    73    74    1
    10    73    65   am
    11    63    64    1
    12    74    75    1
    13    64    65    1
    14    64    67    1
    15    65    66    2
    16    72    70   ar
    17    68    67    1
    18    68    70   ar
    19    87    86    1
    20    75    82   am
    21    75    76    2
    22    82    83    1
    23    86    83    1
    24    92    93    1
    25    83    84    1
    26    85    84    2
    27    93    94    1
    28    93    96    1
    29    84    88   am
    30    94    95    2
    31    91    90    2
    32    90    89    1
    33    96    97    1
    34   101   100    1
    35    88    89    1
    36    97    98    1
    37   102   100    1
    38   100    99    2
    39    23    21    1
    40    22    21    1
    41    99    98    1
    42    21    20    2
    43    20    19    1
    44    19    18    1
    45    34    35    1
    46    34    31    1
    47    17    18    1
    48    17    14    1
    49     6     5    1
    50     6     7    1
    51     5     2    1
    52    31    30    1
    53    31    32    1
    54    30    26   am
    55    14    13    1
    56    14    15    1
    57     2     1    1
    58     2     3    1
    59   110   109    2
    60   111   109   am
    61     7     1    1
    62    13    10   am
    63    24    25    1
    64    26    25    1
    65    26    27    2
    66   109   108    1
    67    45    44    1
    68    32    33    2
    69    32    36   am
    70    25    28    1
    71    15    16    2
    72     8     3   am
    73     8     9    1
    74     3     4    2
    75    10    11    2
    76    10     9    1
    77    46    44    1
    78    36    37    1
    79    44    43    2
    80   108   107    1
    81     9    12    1
    82    28    29    1
    83    41    42    1
    84    41    40    1
    85    37    40    1
    86    37    38    1
    87    43    42    1
    88   107   104    1
    89   104   103    1
    90   104   105    1
    91   131   129   ar
    92    38    39    2
    93    55    54    1
    94   112   105   am
    95   112   113    1
    96   122   121   ar
    97   105   106    2
    98   129   130   ar
    99   129   128    1
   100    54    53    1
   101   121   123   ar
   102   121   120    1
   103   113   114    1
   104    61    62    1
   105    61    60    1
   106    62    56    1
   107   128   125    1
   108   116   114   am
   109   116   117    1
   110   120   117    1
   111    53    52    1
   112    51    52    1
   113    51    48    1
   114    60    57    1
   115    47    48    1
   116   114   115    2
   117   117   118    1
   118    56    57    1
   119    56    49   am
   120   125   126    1
   121   125   124    1
   122    48    49    1
   123   127   126    2
   124    57    58    1
   125    49    50    2
   126   118   119    2
   127    58    59    2
