@<TRIPOS>MOLECULE
tmp/1gqaA00.pdb
 205 196 0 0 0
SMALL
GASTEIGER

@<TRIPOS>ATOM
      1  N         32.7910  -11.4010  -60.0620 N.3     7  VAL7       -0.1245
      2  CA        34.0180  -11.5480  -60.8390 C.3     7  VAL7        0.1561
      3  C         35.0840  -12.3240  -60.0420 C.2     7  VAL7        0.2260
      4  O         35.7280  -13.2480  -60.5520 O.2     7  VAL7       -0.2867
      5  CB        34.5700  -10.1900  -61.3650 C.3     7  VAL7        0.0252
      6  CG1       36.0490  -10.3660  -61.9160 C.3     7  VAL7        0.0019
      7  CG2       33.6940   -9.6760  -62.4710 C.3     7  VAL7        0.0019
      8  N         34.2380  -15.9340  -60.2010 N.3    10  ARG10      -0.1231
      9  CA        34.3930  -16.5220  -61.5190 C.3    10  ARG10       0.1694
     10  C         35.8600  -16.8530  -61.7820 C.2    10  ARG10       0.2591
     11  O         36.1980  -17.9240  -62.2650 O.2    10  ARG10      -0.2718
     12  CB        33.9110  -15.5340  -62.5740 C.3    10  ARG10       0.0321
     13  CG        33.9270  -16.0890  -63.9770 C.3    10  ARG10       0.0489
     14  CD        32.9920  -15.3140  -64.9510 C.3    10  ARG10       0.2205
     15  NE        33.3720  -13.9090  -65.1270 N.pl3  10  ARG10      -0.0865
     16  CZ        32.4990  -12.8860  -65.1110 C.cat  10  ARG10       0.5346
     17  NH1       31.2340  -13.0390  -64.8810 N.pl3  10  ARG10       0.1354
     18  NH2       32.8820  -11.6910  -65.2690 N.pl3  10  ARG10       0.1354
     19  N         36.7270  -15.9170  -61.4790 N.am   11  LYS11      -0.1980
     20  CA        38.1490  -16.1320  -61.6180 C.3    11  LYS11       0.1596
     21  C         38.6450  -17.2110  -60.6550 C.2    11  LYS11       0.2287
     22  O         39.5350  -18.0280  -60.9950 O.2    11  LYS11      -0.2864
     23  CB        38.8630  -14.8050  -61.3900 C.3    11  LYS11       0.0298
     24  CG        38.4650  -13.7270  -62.4900 C.3    11  LYS11       0.0038
     25  CD        39.4350  -12.5420  -62.5660 C.3    11  LYS11       0.0206
     26  CE        39.4350  -11.7170  -61.3110 C.3    11  LYS11       0.1093
     27  NZ        40.4350  -10.5780  -61.3860 N.3    11  LYS11      -0.1314
     28  N         37.9680  -20.6030  -62.1710 N.3    14  PHE14      -0.1227
     29  CA        38.9670  -21.0390  -63.1370 C.3    14  PHE14       0.1736
     30  C         40.3150  -21.2580  -62.4770 C.2    14  PHE14       0.2596
     31  O         41.0510  -22.0920  -62.9370 O.2    14  PHE14      -0.2718
     32  CB        39.0480  -20.1350  -64.4070 C.3    14  PHE14       0.0547
     33  CG        37.8210  -20.2320  -65.2410 C.ar   14  PHE14      -0.0202
     34  CD1       37.6100  -21.3620  -65.9820 C.ar   14  PHE14      -0.0042
     35  CD2       36.8330  -19.2580  -65.2180 C.ar   14  PHE14      -0.0042
     36  CE1       36.4200  -21.5820  -66.7170 C.ar   14  PHE14      -0.0003
     37  CE2       35.6360  -19.4410  -65.9540 C.ar   14  PHE14      -0.0003
     38  CZ        35.4340  -20.5540  -66.7230 C.ar   14  PHE14      -0.0000
     39  N         40.6280  -20.5210  -61.3970 N.am   15  SER15      -0.1952
     40  CA        41.8820  -20.7800  -60.6760 C.3    15  SER15       0.1924
     41  C         41.9220  -22.2410  -60.1840 C.2    15  SER15       0.2314
     42  O         42.9790  -22.8940  -60.2550 O.2    15  SER15      -0.2863
     43  CB        42.0620  -19.8450  -59.4980 C.3    15  SER15       0.2116
     44  OG        42.4410  -18.5840  -59.9500 O.3    15  SER15      -0.2180
     45  N         40.1670  -24.8800  -61.4640 N.3    17  VAL17      -0.1231
     46  CA        40.2770  -25.6880  -62.6460 C.3    17  VAL17       0.1692
     47  C         41.7710  -25.7250  -63.0350 C.2    17  VAL17       0.2591
     48  O         42.3310  -26.7730  -63.2200 O.2    17  VAL17      -0.2718
     49  CB        39.4820  -25.0780  -63.7700 C.3    17  VAL17       0.0266
     50  CG1       39.7650  -25.7650  -65.0700 C.3    17  VAL17       0.0020
     51  CG2       38.0380  -25.1060  -63.4300 C.3    17  VAL17       0.0020
     52  N         42.4200  -24.5680  -63.1170 N.am   18  ALA18      -0.1980
     53  CA        43.8070  -24.5500  -63.5380 C.3    18  ALA18       0.1597
     54  C         44.6930  -25.3210  -62.5250 C.2    18  ALA18       0.2287
     55  O         45.6240  -26.0210  -62.9260 O.2    18  ALA18      -0.2864
     56  CB        44.2890  -23.1450  -63.6970 C.3    18  ALA18       0.0319
     57  N         44.1580  -29.1210  -63.1650 N.3    21  PHE21      -0.1241
     58  CA        44.5620  -29.5390  -64.5050 C.3    21  PHE21       0.1605
     59  C         46.0710  -29.4610  -64.6810 C.2    21  PHE21       0.2264
     60  O         46.6270  -30.1830  -65.4930 O.2    21  PHE21      -0.2867
     61  CB        43.9100  -28.6330  -65.5440 C.3    21  PHE21       0.0534
     62  CG        44.2560  -28.9550  -66.9760 C.ar   21  PHE21      -0.0203
     63  CD1       45.0720  -28.1010  -67.7140 C.ar   21  PHE21      -0.0042
     64  CD2       43.7010  -30.0180  -67.5890 C.ar   21  PHE21      -0.0042
     65  CE1       45.3710  -28.3640  -69.0640 C.ar   21  PHE21      -0.0003
     66  CE2       43.9840  -30.3150  -68.9530 C.ar   21  PHE21      -0.0003
     67  CZ        44.8020  -29.4690  -69.6790 C.ar   21  PHE21      -0.0000
     68  N         38.6640  -32.5030  -60.6140 N.3    46  LEU46      -0.1245
     69  CA        38.1890  -31.8210  -61.8170 C.3    46  LEU46       0.1561
     70  C         36.7540  -32.2190  -62.2090 C.2    46  LEU46       0.2260
     71  O         35.9350  -31.3910  -62.6180 O.2    46  LEU46      -0.2867
     72  CB        39.1480  -32.2010  -62.9260 C.3    46  LEU46       0.0270
     73  CG        39.4790  -31.2380  -64.0320 C.3    46  LEU46       0.0019
     74  CD1       39.3690  -29.7760  -63.5530 C.3    46  LEU46       0.0001
     75  CD2       40.8730  -31.6030  -64.6020 C.3    46  LEU46       0.0001
     76  N         27.7760  -16.1710  -63.8290 N.3    58  TYR58      -0.1241
     77  CA        27.5330  -15.3950  -65.0470 C.3    58  TYR58       0.1605
     78  C         26.3730  -14.4000  -64.9450 C.2    58  TYR58       0.2264
     79  O         25.5680  -14.2750  -65.8540 O.2    58  TYR58      -0.2867
     80  CB        27.3930  -16.3500  -66.2420 C.3    58  TYR58       0.0534
     81  CG        28.6620  -17.1280  -66.4980 C.ar   58  TYR58      -0.0201
     82  CD1       28.7920  -18.4440  -66.0540 C.ar   58  TYR58      -0.0009
     83  CD2       29.7640  -16.5190  -67.1040 C.ar   58  TYR58      -0.0009
     84  CE1       29.9400  -19.1370  -66.2660 C.ar   58  TYR58       0.0417
     85  CE2       30.9330  -17.2140  -67.3050 C.ar   58  TYR58       0.0417
     86  CZ        31.0260  -18.5180  -66.8830 C.ar   58  TYR58       0.1957
     87  OH        32.2060  -19.2140  -67.0970 O.3    58  TYR58      -0.2866
     88  N         37.9800   -8.2110  -65.2850 N.3    70  THR70      -0.1203
     89  CA        37.4540   -9.4670  -65.8190 C.3    70  THR70       0.1994
     90  C         37.8590   -9.6210  -67.2710 C.2    70  THR70       0.2618
     91  O         38.1270   -8.6330  -67.9170 O.2    70  THR70      -0.2717
     92  CB        35.9560   -9.6520  -65.6550 C.3    70  THR70       0.1784
     93  OG1       35.5730  -10.8910  -66.2630 O.3    70  THR70      -0.2211
     94  CG2       35.1110   -8.6010  -66.4680 C.3    70  THR70       0.0376
     95  N         37.8900  -10.8570  -67.7750 N.am   71  ALA71      -0.1965
     96  CA        38.2700  -11.1320  -69.1500 C.3    71  ALA71       0.1728
     97  C         37.1270  -11.8990  -69.8460 C.2    71  ALA71       0.2616
     98  O         37.2780  -12.3690  -70.9750 O.2    71  ALA71      -0.2715
     99  CB        39.5660  -11.9920  -69.2030 C.3    71  ALA71       0.0334
    100  N         35.9850  -11.9720  -69.1630 N.am   72  ALA72      -0.1977
    101  CA        34.7820  -12.5600  -69.7390 C.3    72  ALA72       0.1597
    102  C         34.1260  -11.6370  -70.7930 C.2    72  ALA72       0.2287
    103  O         33.6750  -10.5450  -70.4720 O.2    72  ALA72      -0.2864
    104  CB        33.8290  -12.9240  -68.6810 C.3    72  ALA72       0.0319
    105  N         29.5530  -14.0240  -74.1990 N.3    76  ILE76      -0.1245
    106  CA        29.0180  -15.0990  -73.3660 C.3    76  ILE76       0.1561
    107  C         27.4970  -14.9140  -73.2260 C.2    76  ILE76       0.2260
    108  O         26.7230  -15.8390  -73.3720 O.2    76  ILE76      -0.2867
    109  CB        29.7050  -15.0680  -71.9470 C.3    76  ILE76       0.0252
    110  CG1       31.1520  -15.5560  -72.0520 C.3    76  ILE76       0.0019
    111  CG2       28.9440  -15.9040  -70.9260 C.3    76  ILE76       0.0019
    112  CD1       32.0180  -15.1870  -70.8200 C.3    76  ILE76       0.0001
    113  N         27.8370  -20.7930  -75.7980 N.3    83  PHE83      -0.1241
    114  CA        28.5400  -20.9440  -74.5260 C.3    83  PHE83       0.1605
    115  C         28.2530  -22.2790  -73.8570 C.2    83  PHE83       0.2264
    116  O         29.1880  -22.9260  -73.4160 O.2    83  PHE83      -0.2867
    117  CB        28.2580  -19.7890  -73.5590 C.3    83  PHE83       0.0534
    118  CG        29.2690  -19.6810  -72.4300 C.ar   83  PHE83      -0.0203
    119  CD1       28.8910  -19.8710  -71.1080 C.ar   83  PHE83      -0.0042
    120  CD2       30.5850  -19.3750  -72.7060 C.ar   83  PHE83      -0.0042
    121  CE1       29.8120  -19.8020  -70.0530 C.ar   83  PHE83      -0.0003
    122  CE2       31.5150  -19.2570  -71.6790 C.ar   83  PHE83      -0.0003
    123  CZ        31.1640  -19.4920  -70.3530 C.ar   83  PHE83      -0.0000
    124  N         30.2860  -25.0140  -75.5560 N.3    86  LYS86      -0.1231
    125  CA        31.7040  -25.1140  -75.2140 C.3    86  LYS86       0.1693
    126  C         31.8290  -25.6810  -73.7950 C.2    86  LYS86       0.2592
    127  O         32.7120  -26.4810  -73.5510 O.2    86  LYS86      -0.2718
    128  CB        32.4930  -23.8080  -75.4170 C.3    86  LYS86       0.0285
    129  CG        32.3290  -23.1770  -76.8480 C.3    86  LYS86       0.0035
    130  CD        33.3780  -23.6280  -77.8980 C.3    86  LYS86       0.0206
    131  CE        33.3030  -22.7040  -79.1150 C.3    86  LYS86       0.1093
    132  NZ        34.5770  -22.6160  -79.8630 N.3    86  LYS86      -0.1314
    133  N         30.9200  -25.3100  -72.8880 N.am   87  GLY87      -0.1957
    134  CA        30.8670  -25.8840  -71.5570 C.3    87  GLY87       0.1869
    135  C         30.6530  -27.3940  -71.5820 C.2    87  GLY87       0.2309
    136  O         31.3410  -28.1650  -70.8980 O.2    87  GLY87      -0.2863
    137  N         33.6440  -29.4150  -72.6620 N.3    90  PHE90      -0.1241
    138  CA        34.6370  -29.4600  -71.5970 C.3    90  PHE90       0.1605
    139  C         34.2300  -30.5400  -70.6400 C.2    90  PHE90       0.2264
    140  O         34.9960  -31.4290  -70.3610 O.2    90  PHE90      -0.2867
    141  CB        34.6790  -28.1110  -70.9030 C.3    90  PHE90       0.0534
    142  CG        35.4210  -28.0930  -69.6070 C.ar   90  PHE90      -0.0203
    143  CD1       36.7670  -28.4480  -69.5490 C.ar   90  PHE90      -0.0042
    144  CD2       34.7950  -27.6160  -68.4540 C.ar   90  PHE90      -0.0042
    145  CE1       37.4520  -28.3680  -68.3720 C.ar   90  PHE90      -0.0003
    146  CE2       35.4750  -27.5530  -67.2590 C.ar   90  PHE90      -0.0003
    147  CZ        36.8100  -27.9090  -67.2230 C.ar   90  PHE90      -0.0000
    148  N         41.0850  -32.5050  -73.3480 N.3   115  VAL115     -0.1245
    149  CA        40.6380  -31.5240  -72.4000 C.3   115  VAL115      0.1561
    150  C         41.2410  -30.1940  -72.7810 C.2   115  VAL115      0.2260
    151  O         40.5160  -29.1640  -72.8770 O.2   115  VAL115     -0.2867
    152  CB        41.0290  -31.9190  -70.9580 C.3   115  VAL115      0.0252
    153  CG1       40.6380  -30.8340  -69.9970 C.3   115  VAL115      0.0019
    154  CG2       40.3850  -33.2640  -70.5670 C.3   115  VAL115      0.0019
    155  N         39.5510  -28.2790  -75.3250 N.3   118  THR118     -0.1203
    156  CA        38.3460  -27.6440  -74.8430 C.3   118  THR118      0.1994
    157  C         38.6350  -26.3240  -74.1080 C.2   118  THR118      0.2618
    158  O         37.8930  -25.3860  -74.2690 O.2   118  THR118     -0.2717
    159  CB        37.3680  -28.5710  -74.1040 C.3   118  THR118      0.1784
    160  OG1       37.8080  -28.8720  -72.7590 O.3   118  THR118     -0.2211
    161  CG2       37.2030  -29.9220  -74.8570 C.3   118  THR118      0.0376
    162  N         39.6970  -26.2640  -73.3290 N.am  119  CYS119     -0.1969
    163  CA        40.0760  -25.0180  -72.6820 C.3   119  CYS119      0.1712
    164  C         40.2000  -23.9390  -73.7370 C.2   119  CYS119      0.2296
    165  O         39.5700  -22.8670  -73.6360 O.2   119  CYS119     -0.2864
    166  CB        41.4250  -25.1310  -72.0140 C.3   119  CYS119      0.0983
    167  SG        41.4790  -26.4800  -70.8300 S.3   119  CYS119     -0.0798
    168  N         37.1100  -22.7660  -75.8510 N.3   122  CYS122     -0.1221
    169  CA        36.2920  -21.7760  -75.1160 C.3   122  CYS122      0.1808
    170  C         36.9350  -20.3940  -75.0800 C.2   122  CYS122      0.2601
    171  O         36.2930  -19.4250  -75.4020 O.2   122  CYS122     -0.2717
    172  CB        35.9670  -22.2050  -73.7190 C.3   122  CYS122      0.0970
    173  SG        34.6720  -21.1380  -72.9680 S.3   122  CYS122     -0.0800
    174  N         38.2050  -20.3240  -74.6870 N.am  123  HIS123     -0.1975
    175  CA        38.9300  -19.0880  -74.6290 C.3   123  HIS123      0.1656
    176  C         38.8390  -18.3390  -75.9590 C.2   123  HIS123      0.2291
    177  O         38.6650  -17.1260  -75.9930 O.2   123  HIS123     -0.2864
    178  CB        40.3710  -19.3660  -74.1530 C.3   123  HIS123      0.0771
    179  CG        40.4140  -19.9570  -72.7660 C.ar  123  HIS123      0.0820
    180  ND1       41.4880  -20.6440  -72.2690 N.ar  123  HIS123     -0.2267
    181  CD2       39.5000  -19.9110  -71.7580 C.ar  123  HIS123      0.1154
    182  CE1       41.2300  -21.0190  -71.0210 C.ar  123  HIS123      0.1986
    183  NE2       40.0230  -20.6120  -70.6890 N.ar  123  HIS123     -0.2212
    184  N         35.2700  -16.7590  -76.1410 N.3   126  PHE126     -0.1227
    185  CA        34.6330  -16.0610  -75.0500 C.3   126  PHE126      0.1736
    186  C         35.5230  -15.3620  -74.0320 C.2   126  PHE126      0.2595
    187  O         34.9980  -14.7530  -73.0740 O.2   126  PHE126     -0.2718
    188  CB        33.6580  -16.9990  -74.3400 C.3   126  PHE126      0.0547
    189  CG        32.5460  -17.4830  -75.2250 C.ar  126  PHE126     -0.0202
    190  CD1       32.5630  -18.7560  -75.7680 C.ar  126  PHE126     -0.0042
    191  CD2       31.4660  -16.6550  -75.4940 C.ar  126  PHE126     -0.0042
    192  CE1       31.5150  -19.2200  -76.5990 C.ar  126  PHE126     -0.0003
    193  CE2       30.4130  -17.1110  -76.3140 C.ar  126  PHE126     -0.0003
    194  CZ        30.4530  -18.3890  -76.8830 C.ar  126  PHE126     -0.0000
    195  N         36.8410  -15.4500  -74.2010 N.am  127  ARG127     -0.1980
    196  CA        37.7430  -14.7860  -73.3020 C.3   127  ARG127      0.1597
    197  C         38.5410  -13.7280  -74.0540 C.2   127  ARG127      0.2287
    198  O         39.0770  -14.0210  -75.0940 O.2   127  ARG127     -0.2864
    199  CB        38.6950  -15.7790  -72.6150 C.3   127  ARG127      0.0334
    200  CG        39.6000  -15.1150  -71.6110 C.3   127  ARG127      0.0492
    201  CD        40.4700  -16.0830  -70.8220 C.3   127  ARG127      0.2205
    202  NE        41.5620  -16.5600  -71.6400 N.pl3 127  ARG127     -0.0865
    203  CZ        42.4890  -17.4010  -71.2060 C.cat 127  ARG127      0.5346
    204  NH1       43.4840  -17.7550  -72.0270 N.pl3 127  ARG127      0.1354
    205  NH2       42.4280  -17.8770  -69.9580 N.pl3 127  ARG127      0.1354
@<TRIPOS>BOND
     1   132   131    1
     2   131   130    1
     3   130   129    1
     4   194   192   ar
     5   194   193   ar
     6   129   128    1
     7   192   190   ar
     8   193   191   ar
     9   184   185    1
    10   177   176    2
    11   176   175    1
    12   168   169    1
    13   113   114    1
    14   190   189   ar
    15   124   125    1
    16   191   189   ar
    17   128   125    1
    18   171   170    2
    19   155   156    1
    20   189   188    1
    21   125   126    1
    22   169   170    1
    23   169   172    1
    24   198   197    2
    25   170   174   am
    26   185   188    1
    27   185   186    1
    28   161   159    1
    29   156   157    1
    30   156   159    1
    31   174   175    1
    32   175   178    1
    33   114   115    1
    34   114   117    1
    35   158   157    2
    36   195   186   am
    37   195   196    1
    38   105   106    1
    39   178   179    1
    40   157   162   am
    41   159   160    1
    42   197   196    1
    43   186   187    2
    44   115   116    2
    45   126   127    2
    46   126   133   am
    47   164   165    2
    48   164   163    1
    49   172   173    1
    50   117   118    1
    51   108   107    2
    52   106   107    1
    53   106   109    1
    54   148   149    1
    55   162   163    1
    56   196   199    1
    57   133   134    1
    58   151   150    2
    59   150   149    1
    60   179   180   ar
    61   179   181   ar
    62   120   118   ar
    63   120   122   ar
    64   163   166    1
    65   137   138    1
    66   199   200    1
    67   118   119   ar
    68   149   152    1
    69   180   182   ar
    70   110   109    1
    71   110   112    1
    72   204   203    1
    73   166   167    1
    74   109   111    1
    75   181   183   ar
    76   122   123   ar
    77   202   203    2
    78   202   201    1
    79   200   201    1
    80   138   141    1
    81   138   139    1
    82   135   134    1
    83   135   136    2
    84   203   205    1
    85   119   121   ar
    86   182   183   ar
    87    98    97    2
    88   152   154    1
    89   152   153    1
    90   141   142    1
    91   102   103    2
    92   102   101    1
    93   139   140    2
    94   123   121   ar
    95    97   100   am
    96    97    96    1
    97   101   100    1
    98   101   104    1
    99    67    65   ar
   100    67    66   ar
   101   142   143   ar
   102   142   144   ar
   103   143   145   ar
   104    99    96    1
   105    96    95    1
   106    65    63   ar
   107    66    64   ar
   108   144   146   ar
   109   145   147   ar
   110    91    90    2
   111    95    90   am
   112    63    62   ar
   113    64    62   ar
   114    85    83   ar
   115    85    86   ar
   116    90    89    1
   117   146   147   ar
   118    83    81   ar
   119    87    86    1
   120    62    61    1
   121    86    84   ar
   122    38    36   ar
   123    38    37   ar
   124    36    34   ar
   125    81    80    1
   126    81    82   ar
   127    94    92    1
   128    84    82   ar
   129    93    92    1
   130    80    77    1
   131    34    33   ar
   132    37    35   ar
   133    79    78    2
   134    89    92    1
   135    89    88    1
   136    61    58    1
   137    60    59    2
   138    18    16    1
   139    33    35   ar
   140    33    32    1
   141    15    16    2
   142    15    14    1
   143    16    17    1
   144    50    49    1
   145    77    78    1
   146    77    76    1
   147    14    13    1
   148    59    58    1
   149    75    73    1
   150    58    57    1
   151    32    29    1
   152    73    74    1
   153    73    72    1
   154    13    12    1
   155    49    51    1
   156    49    46    1
   157    56    53    1
   158    53    52    1
   159    53    54    1
   160    48    47    2
   161    29    30    1
   162    29    28    1
   163    52    47   am
   164    47    46    1
   165    31    30    2
   166    55    54    2
   167    72    69    1
   168    46    45    1
   169    71    70    2
   170    12     9    1
   171    25    24    1
   172    25    26    1
   173    24    23    1
   174    30    39   am
   175     7     5    1
   176    11    10    2
   177    70    69    1
   178     6     5    1
   179    69    68    1
   180    10     9    1
   181    10    19   am
   182    20    19    1
   183    20    23    1
   184    20    21    1
   185     9     8    1
   186    39    40    1
   187    27    26    1
   188     5     2    1
   189    22    21    2
   190     2     1    1
   191     2     3    1
   192    40    41    1
   193    40    43    1
   194     4     3    2
   195    42    41    2
   196    44    43    1
