@<TRIPOS>MOLECULE
tmp/1gqcB00.pdb
 114 110 0 0 0
SMALL
GASTEIGER

@<TRIPOS>ATOM
      1  N         46.6130   51.8010   49.3180 N.3     8  PRO8       -0.2102
      2  CA        46.9730   51.0170   50.5060 C.3     8  PRO8        0.1504
      3  C         46.2360   49.6610   50.4350 C.2     8  PRO8        0.2576
      4  O         45.0040   49.6330   50.3320 O.2     8  PRO8       -0.2718
      5  CB        46.4680   51.8830   51.6560 C.3     8  PRO8        0.0282
      6  CG        46.4450   53.2580   51.0900 C.3     8  PRO8        0.0208
      7  CD        45.9180   53.0360   49.7000 C.3     8  PRO8        0.0893
      8  N         46.9760   48.5480   50.4620 N.am    9  ALA9       -0.1966
      9  CA        46.3580   47.2160   50.3890 C.3     9  ALA9        0.1728
     10  C         46.9960   46.1550   51.3010 C.2     9  ALA9        0.2616
     11  O         47.6010   45.1900   50.8140 O.2     9  ALA9       -0.2715
     12  CB        46.3600   46.7100   48.9330 C.3     9  ALA9        0.0334
     13  N         46.8390   46.3300   52.6130 N.am   10  ARG10      -0.1977
     14  CA        47.3770   45.3950   53.6040 C.3    10  ARG10       0.1597
     15  C         46.6620   44.0510   53.4520 C.2    10  ARG10       0.2287
     16  O         45.4680   44.0150   53.1470 O.2    10  ARG10      -0.2864
     17  CB        47.1120   45.9160   55.0200 C.3    10  ARG10       0.0334
     18  CG        45.6200   45.9030   55.3240 C.3    10  ARG10       0.0492
     19  CD        45.2230   46.5380   56.6280 C.3    10  ARG10       0.2205
     20  NE        45.1740   45.5920   57.7330 N.pl3  10  ARG10      -0.0865
     21  CZ        44.2100   45.5740   58.6490 C.cat  10  ARG10       0.5346
     22  NH1       43.2070   46.4570   58.5890 N.pl3  10  ARG10       0.1354
     23  NH2       44.2490   44.6690   59.6200 N.pl3  10  ARG10       0.1354
     24  N         42.8220   41.6510   57.5470 N.3    13  SER13      -0.1217
     25  CA        41.4910   42.2270   57.6770 C.3    13  SER13       0.1889
     26  C         40.7690   41.4700   58.7730 C.2    13  SER13       0.2288
     27  O         40.9050   40.2550   58.9130 O.2    13  SER13      -0.2866
     28  CB        40.6920   42.1170   56.3810 C.3    13  SER13       0.2089
     29  OG        39.3660   42.5880   56.5790 O.3    13  SER13      -0.2183
     30  N         41.7680   40.2130   52.0660 N.3    19  LYS19      -0.1231
     31  CA        40.7980   40.9660   51.2700 C.3    19  LYS19       0.1678
     32  C         41.2370   41.3670   49.8750 C.2    19  LYS19       0.2434
     33  O         40.4870   41.2000   48.9260 O.2    19  LYS19      -0.2733
     34  CB        40.3500   42.2310   52.0180 C.3    19  LYS19       0.0284
     35  CG        38.8670   42.5660   51.8030 C.3    19  LYS19       0.0035
     36  CD        38.5120   44.0030   52.1550 C.3    19  LYS19       0.0206
     37  CE        38.8990   44.3740   53.5760 C.3    19  LYS19       0.1093
     38  NZ        38.4490   45.7520   53.9170 N.3    19  LYS19      -0.1314
     39  N         42.4580   41.9100   49.7290 N.am   20  PRO20      -0.2729
     40  CA        42.9750   42.3400   48.4210 C.3    20  PRO20       0.1401
     41  C         42.9110   41.2890   47.3400 C.2    20  PRO20       0.2269
     42  O         42.7120   41.6050   46.1670 O.2    20  PRO20      -0.2865
     43  CB        44.4130   42.7160   48.7210 C.3    20  PRO20       0.0296
     44  CG        44.3540   43.1590   50.1540 C.3    20  PRO20       0.0237
     45  CD        43.4550   42.1440   50.7890 C.3    20  PRO20       0.0939
     46  N         51.8680   49.4460   60.3390 N.3    73  HIS73      -0.1226
     47  CA        51.2680   50.7670   60.1970 C.3    73  HIS73       0.1752
     48  C         49.8600   50.6720   60.7590 C.2    73  HIS73       0.2596
     49  O         49.2110   49.6270   60.6470 O.2    73  HIS73      -0.2718
     50  CB        51.1910   51.1610   58.7360 C.3    73  HIS73       0.0759
     51  CG        52.4560   51.7360   58.2020 C.ar   73  HIS73       0.0818
     52  ND1       52.9460   52.9540   58.6160 N.ar   73  HIS73      -0.2268
     53  CD2       53.3250   51.2730   57.2760 C.ar   73  HIS73       0.1154
     54  CE1       54.0630   53.2190   57.9630 C.ar   73  HIS73       0.1986
     55  NE2       54.3140   52.2160   57.1450 N.ar   73  HIS73      -0.2212
     56  N         49.3860   51.7570   61.3570 N.am   74  GLU74      -0.1965
     57  CA        48.0560   51.7760   61.9550 C.3    74  GLU74       0.1733
     58  C         46.9300   52.1550   60.9750 C.2    74  GLU74       0.2617
     59  O         45.7530   52.0050   61.2820 O.2    74  GLU74      -0.2715
     60  CB        48.0570   52.7440   63.1400 C.3    74  GLU74       0.0429
     61  CG        49.2080   52.5260   64.1140 C.3    74  GLU74       0.1163
     62  CD        49.1080   51.2040   64.8580 C.2    74  GLU74       0.3649
     63  OE1       49.0460   50.1440   64.2060 O.co2  74  GLU74      -0.2457
     64  OE2       49.0960   51.2290   66.1030 O.co2  74  GLU74      -0.2457
     65  N         47.2780   52.6580   59.8010 N.am   75  SER75      -0.1936
     66  CA        46.2510   53.0360   58.8490 C.3    75  SER75       0.2055
     67  C         46.8330   53.2860   57.4740 C.2    75  SER75       0.2643
     68  O         48.0290   53.5310   57.3280 O.2    75  SER75      -0.2714
     69  CB        45.5130   54.2920   59.3280 C.3    75  SER75       0.2130
     70  OG        46.3060   55.4550   59.1720 O.3    75  SER75      -0.2179
     71  N         45.9800   53.2180   56.4620 N.am   76  GLY76      -0.1954
     72  CA        46.4400   53.4560   55.1080 C.3    76  GLY76       0.1869
     73  C         47.1710   54.7790   54.9410 C.2    76  GLY76       0.2309
     74  O         48.0840   54.8790   54.1340 O.2    76  GLY76      -0.2863
     75  N         50.7960   54.4930   55.9070 N.3    79  ARG79      -0.1245
     76  CA        51.5280   53.7130   54.9150 C.3    79  ARG79       0.1563
     77  C         51.8120   54.6400   53.7290 C.2    79  ARG79       0.2260
     78  O         52.8720   54.5650   53.0870 O.2    79  ARG79      -0.2867
     79  CB        50.6600   52.5310   54.4520 C.3    79  ARG79       0.0307
     80  CG        51.3910   51.4440   53.6670 C.3    79  ARG79       0.0489
     81  CD        50.4370   50.3070   53.2800 C.3    79  ARG79       0.2205
     82  NE        49.7320   49.7060   54.4170 N.pl3  79  ARG79      -0.0865
     83  CZ        50.3040   48.9150   55.3160 C.cat  79  ARG79       0.5346
     84  NH1       51.5870   48.6300   55.2060 N.pl3  79  ARG79       0.1354
     85  NH2       49.6010   48.4110   56.3220 N.pl3  79  ARG79       0.1354
     86  N         41.2840   53.9380   48.0580 N.3    96  GLN96      -0.1231
     87  CA        41.0250   52.7770   48.9060 C.3    96  GLN96       0.1698
     88  C         41.1510   51.4750   48.1110 C.2    96  GLN96       0.2593
     89  O         40.6670   51.3640   46.9680 O.2    96  GLN96      -0.2718
     90  CB        39.6210   52.8770   49.4930 C.3    96  GLN96       0.0381
     91  CG        39.3640   54.1890   50.1950 C.3    96  GLN96       0.0905
     92  CD        40.2010   54.3490   51.4460 C.2    96  GLN96       0.2608
     93  OE1       40.0080   53.6330   52.4320 O.2    96  GLN96      -0.2717
     94  NE2       41.1360   55.2890   51.4140 N.am   96  GLN96      -0.0878
     95  N         41.7910   50.4830   48.7140 N.am   97  GLY97      -0.1942
     96  CA        41.9580   49.2070   48.0400 C.3    97  GLY97       0.2014
     97  C         40.7430   48.3010   48.1190 C.2    97  GLY97       0.2638
     98  O         40.7050   47.2580   47.4850 O.2    97  GLY97      -0.2714
     99  N         39.7470   48.6590   48.9100 N.am   98  ASP98      -0.1971
    100  CA        38.5720   47.8130   48.9820 C.3    98  ASP98       0.1709
    101  C         37.3590   48.4640   48.3560 C.2    98  ASP98       0.2293
    102  O         36.2360   48.1230   48.6980 O.2    98  ASP98      -0.2864
    103  CB        38.2600   47.3990   50.4310 C.3    98  ASP98       0.1436
    104  CG        38.4210   48.5330   51.4310 C.2    98  ASP98       0.3671
    105  OD1       38.5090   49.7100   51.0240 O.co2  98  ASP98      -0.2456
    106  OD2       38.4500   48.2400   52.6460 O.co2  98  ASP98      -0.2456
    107  N         33.7430   45.4990   52.8700 N.3   225  ASP225     -0.1239
    108  CA        34.1770   45.3610   54.2520 C.3   225  ASP225      0.1674
    109  C         33.5970   44.0830   54.8360 C.2   225  ASP225      0.2266
    110  O         34.1880   43.4780   55.7250 O.2   225  ASP225     -0.2867
    111  CB        33.6970   46.5460   55.1010 C.3   225  ASP225      0.1410
    112  CG        33.6990   47.8690   54.3430 C.2   225  ASP225      0.3668
    113  OD1       32.8790   48.0240   53.4050 O.co2 225  ASP225     -0.2456
    114  OD2       34.5130   48.7570   54.6900 O.co2 225  ASP225     -0.2456
@<TRIPOS>BOND
     1    42    41    2
     2    89    88    2
     3    41    40    1
     4    98    97    2
     5    96    97    1
     6    96    95    1
     7    86    87    1
     8    88    95   am
     9    88    87    1
    10    97    99   am
    11   101   102    2
    12   101   100    1
    13    40    43    1
    14    40    39    1
    15    43    44    1
    16    87    90    1
    17    99   100    1
    18    33    32    2
    19    12     9    1
    20   100   103    1
    21     1     7    1
    22     1     2    1
    23    90    91    1
    24     7     6    1
    25    39    32   am
    26    39    45    1
    27    32    31    1
    28    44    45    1
    29    91    92    1
    30     4     3    2
    31     9     8    1
    32     9    10    1
    33   103   104    1
    34     3     8   am
    35     3     2    1
    36     2     5    1
    37    11    10    2
    38   105   104   ar
    39     6     5    1
    40    31    34    1
    41    31    30    1
    42    10    13   am
    43    94    92   am
    44   104   106   ar
    45    92    93    2
    46    35    34    1
    47    35    36    1
    48    36    37    1
    49    13    14    1
    50   107   108    1
    51    78    77    2
    52    16    15    2
    53    81    80    1
    54    81    82    1
    55   113   112   ar
    56    15    14    1
    57    37    38    1
    58    14    17    1
    59    80    79    1
    60    77    76    1
    61    74    73    2
    62   108   109    1
    63   108   111    1
    64   112   114   ar
    65   112   111    1
    66    82    83    2
    67    79    76    1
    68   109   110    2
    69    76    75    1
    70    73    72    1
    71    17    18    1
    72    72    71    1
    73    84    83    1
    74    83    85    1
    75    18    19    1
    76    28    29    1
    77    28    25    1
    78    71    67   am
    79    19    20    1
    80    55    53   ar
    81    55    54   ar
    82    53    51   ar
    83    68    67    2
    84    67    66    1
    85    24    25    1
    86    25    26    1
    87    20    21    2
    88    54    52   ar
    89    51    52   ar
    90    51    50    1
    91    22    21    1
    92    21    23    1
    93    50    47    1
    94    26    27    2
    95    66    69    1
    96    66    65    1
    97    70    69    1
    98    65    58   am
    99    47    46    1
   100    47    48    1
   101    49    48    2
   102    48    56   am
   103    58    59    2
   104    58    57    1
   105    56    57    1
   106    57    60    1
   107    60    61    1
   108    61    62    1
   109    63    62   ar
   110    62    64   ar
