@<TRIPOS>MOLECULE
tmp/1gqcA00.pdb
 191 181 0 0 0
SMALL
GASTEIGER

@<TRIPOS>ATOM
      1  N         19.7440   93.3450   70.5020 N.3     8  PRO8       -0.2102
      2  CA        18.5180   93.0660   69.7430 C.3     8  PRO8        0.1504
      3  C         17.3860   92.6730   70.6930 C.2     8  PRO8        0.2576
      4  O         17.5640   91.8170   71.5490 O.2     8  PRO8       -0.2718
      5  CB        18.9090   91.8760   68.8650 C.3     8  PRO8        0.0282
      6  CG        20.3780   92.0050   68.6960 C.3     8  PRO8        0.0208
      7  CD        20.8370   92.4530   70.0790 C.3     8  PRO8        0.0893
      8  N         16.2110   93.2550   70.5380 N.am    9  ALA9       -0.1966
      9  CA        15.1320   92.8920   71.4360 C.3     9  ALA9        0.1728
     10  C         13.7860   92.8120   70.7400 C.2     9  ALA9        0.2616
     11  O         12.9500   93.7160   70.8770 O.2     9  ALA9       -0.2715
     12  CB        15.0700   93.8770   72.5890 C.3     9  ALA9        0.0334
     13  N         13.5870   91.7340   69.9820 N.am   10  ARG10      -0.1977
     14  CA        12.3180   91.5010   69.2890 C.3    10  ARG10       0.1597
     15  C         11.2940   91.2840   70.4160 C.2    10  ARG10       0.2287
     16  O         11.6410   90.7310   71.4560 O.2    10  ARG10      -0.2864
     17  CB        12.4230   90.2370   68.4350 C.3    10  ARG10       0.0334
     18  CG        11.5690   90.2070   67.1890 C.3    10  ARG10       0.0492
     19  CD        11.4660   88.7750   66.6690 C.3    10  ARG10       0.2205
     20  NE        11.1680   88.6880   65.2420 N.pl3  10  ARG10      -0.0865
     21  CZ        10.1690   89.3220   64.6270 C.cat  10  ARG10       0.5346
     22  NH1        9.3430   90.1100   65.3060 N.pl3  10  ARG10       0.1354
     23  NH2        9.9990   89.1710   63.3170 N.pl3  10  ARG10       0.1354
     24  N          9.3860   88.6090   76.0650 N.3    19  LYS19      -0.1245
     25  CA        10.4880   88.2790   76.9610 C.3    19  LYS19       0.1561
     26  C         11.1690   89.4960   77.5890 C.2    19  LYS19       0.2260
     27  O         11.2620   89.5970   78.8150 O.2    19  LYS19      -0.2867
     28  CB        11.5570   87.4620   76.2310 C.3    19  LYS19       0.0271
     29  CG        11.2210   86.0100   76.0350 C.3    19  LYS19       0.0035
     30  CD        12.3200   85.2920   75.2610 C.3    19  LYS19       0.0206
     31  CE        11.9600   83.8300   75.0760 C.3    19  LYS19       0.1093
     32  NZ        13.0180   83.0580   74.3810 N.3    19  LYS19      -0.1314
     33  N         13.2280   91.7470   59.6820 N.3    73  HIS73      -0.1226
     34  CA        14.5750   91.1960   59.8600 C.3    73  HIS73       0.1752
     35  C         14.5170   89.6940   60.2320 C.2    73  HIS73       0.2596
     36  O         13.7140   89.2900   61.0730 O.2    73  HIS73      -0.2718
     37  CB        15.3370   91.9760   60.9430 C.3    73  HIS73       0.0759
     38  CG        15.9610   93.2490   60.4560 C.ar   73  HIS73       0.0818
     39  ND1       16.9640   93.2740   59.5100 N.ar   73  HIS73      -0.2268
     40  CD2       15.7450   94.5420   60.8070 C.ar   73  HIS73       0.1154
     41  CE1       17.3380   94.5240   59.2990 C.ar   73  HIS73       0.1986
     42  NE2       16.6150   95.3130   60.0730 N.ar   73  HIS73      -0.2212
     43  N         15.3740   88.8880   59.6040 N.am   74  GLU74      -0.1965
     44  CA        15.4310   87.4330   59.8370 C.3    74  GLU74       0.1733
     45  C         16.2230   87.0090   61.0730 C.2    74  GLU74       0.2617
     46  O         15.9610   85.9500   61.6330 O.2    74  GLU74      -0.2715
     47  CB        16.0320   86.7100   58.6260 C.3    74  GLU74       0.0429
     48  CG        15.2050   86.7360   57.3450 C.3    74  GLU74       0.1163
     49  CD        13.8890   85.9960   57.4680 C.2    74  GLU74       0.3649
     50  OE1       13.8800   84.8730   58.0200 O.co2  74  GLU74      -0.2457
     51  OE2       12.8630   86.5350   56.9980 O.co2  74  GLU74      -0.2457
     52  N         17.2000   87.8210   61.4780 N.am   75  SER75      -0.1936
     53  CA        18.0160   87.5180   62.6590 C.3    75  SER75       0.2055
     54  C         18.5040   88.7600   63.4170 C.2    75  SER75       0.2643
     55  O         18.3490   89.8920   62.9570 O.2    75  SER75      -0.2714
     56  CB        19.2360   86.6790   62.2650 C.3    75  SER75       0.2130
     57  OG        20.1850   87.4520   61.5440 O.3    75  SER75      -0.2179
     58  N         19.0930   88.5260   64.5880 N.am   76  GLY76      -0.1954
     59  CA        19.6270   89.6090   65.3790 C.3    76  GLY76       0.1869
     60  C         20.7550   90.2680   64.6160 C.2    76  GLY76       0.2309
     61  O         20.8250   91.4910   64.5640 O.2    76  GLY76      -0.2863
     62  N         19.5250   92.4990   62.0590 N.3    79  ARG79      -0.1245
     63  CA        19.0260   93.7020   62.7110 C.3    79  ARG79       0.1563
     64  C         20.1680   94.6600   63.0660 C.2    79  ARG79       0.2260
     65  O         20.0040   95.8740   62.9670 O.2    79  ARG79      -0.2867
     66  CB        18.2320   93.3440   63.9750 C.3    79  ARG79       0.0307
     67  CG        17.5150   94.5480   64.6480 C.3    79  ARG79       0.0489
     68  CD        16.7140   94.1480   65.9150 C.3    79  ARG79       0.2205
     69  NE        15.8030   93.0250   65.6830 N.pl3  79  ARG79      -0.0865
     70  CZ        14.7890   93.0560   64.8310 C.cat  79  ARG79       0.5346
     71  NH1       14.5440   94.1590   64.1320 N.pl3  79  ARG79       0.1354
     72  NH2       14.0440   91.9820   64.6500 N.pl3  79  ARG79       0.1354
     73  N         27.1320   92.0480   69.6790 N.3    94  ASN94      -0.1240
     74  CA        25.7320   91.6590   69.7040 C.3    94  ASN94       0.1653
     75  C         25.5150   90.9040   71.0200 C.2    94  ASN94       0.2266
     76  O         26.0670   89.8320   71.2140 O.2    94  ASN94      -0.2867
     77  CB        25.4460   90.7640   68.4700 C.3    94  ASN94       0.1155
     78  CG        24.0200   90.2270   68.4190 C.2    94  ASN94       0.2627
     79  OD1       23.2740   90.3000   69.3910 O.2    94  ASN94      -0.2716
     80  ND2       23.6470   89.6600   67.2700 N.am   94  ASN94      -0.0877
     81  N         22.6770   89.2020   73.4830 N.3    96  GLN96      -0.1231
     82  CA        21.2860   88.7540   73.4960 C.3    96  GLN96       0.1698
     83  C         20.4550   89.4300   74.5690 C.2    96  GLN96       0.2593
     84  O         20.9110   89.5830   75.6960 O.2    96  GLN96      -0.2718
     85  CB        21.2410   87.2470   73.6540 C.3    96  GLN96       0.0381
     86  CG        21.8010   86.5720   72.4360 C.3    96  GLN96       0.0905
     87  CD        21.4830   85.1000   72.3770 C.2    96  GLN96       0.2608
     88  OE1       20.3900   84.6670   72.7410 O.2    96  GLN96      -0.2717
     89  NE2       22.4320   84.3180   71.8900 N.am   96  GLN96      -0.0878
     90  N         19.2410   89.8430   74.2110 N.am   97  GLY97      -0.1942
     91  CA        18.3750   90.5230   75.1620 C.3    97  GLY97       0.2014
     92  C         17.6590   89.5990   76.1360 C.2    97  GLY97       0.2638
     93  O         16.9280   90.0760   77.0140 O.2    97  GLY97      -0.2714
     94  N         17.8680   88.2840   75.9840 N.am   98  ASP98      -0.1971
     95  CA        17.2330   87.2910   76.8540 C.3    98  ASP98       0.1709
     96  C         18.1700   86.4750   77.7680 C.2    98  ASP98       0.2293
     97  O         17.7660   85.4440   78.3060 O.2    98  ASP98      -0.2864
     98  CB        16.3540   86.3220   76.0370 C.3    98  ASP98       0.1436
     99  CG        17.1420   85.5060   75.0110 C.2    98  ASP98       0.3671
    100  OD1       18.2750   85.0760   75.3040 O.co2  98  ASP98      -0.2456
    101  OD2       16.6090   85.2680   73.9040 O.co2  98  ASP98      -0.2456
    102  N         18.0880   72.8530   71.7680 N.3   138  SER138     -0.1217
    103  CA        18.0290   74.2710   72.1240 C.3   138  SER138      0.1889
    104  C         19.3880   74.7790   72.5670 C.2   138  SER138      0.2288
    105  O         19.6130   75.9740   72.6390 O.2   138  SER138     -0.2866
    106  CB        17.0390   74.5000   73.2670 C.3   138  SER138      0.2089
    107  OG        17.5210   73.9330   74.4780 O.3   138  SER138     -0.2183
    108  N         23.1100   75.1040   71.5940 N.3   140  VAL140     -0.1245
    109  CA        23.9700   74.9790   70.4220 C.3   140  VAL140      0.1561
    110  C         25.3700   74.4950   70.8140 C.2   140  VAL140      0.2260
    111  O         25.9160   74.9040   71.8380 O.2   140  VAL140     -0.2867
    112  CB        24.0890   76.3330   69.6490 C.3   140  VAL140      0.0252
    113  CG1       24.8070   76.1160   68.3040 C.3   140  VAL140      0.0019
    114  CG2       22.7150   76.9280   69.4080 C.3   140  VAL140      0.0019
    115  N         23.0340   72.1370   66.2220 N.3   155  ARG155     -0.1245
    116  CA        22.0720   71.8270   67.2720 C.3   155  ARG155      0.1563
    117  C         22.2090   70.3440   67.5430 C.2   155  ARG155      0.2260
    118  O         21.7180   69.8190   68.5430 O.2   155  ARG155     -0.2867
    119  CB        20.6470   72.1760   66.8330 C.3   155  ARG155      0.0307
    120  CG        20.4220   73.6770   66.7050 C.3   155  ARG155      0.0489
    121  CD        18.9780   74.0350   66.5020 C.3   155  ARG155      0.2205
    122  NE        18.7770   75.4830   66.4370 N.pl3 155  ARG155     -0.0865
    123  CZ        18.5890   76.2780   67.4920 C.cat 155  ARG155      0.5346
    124  NH1       18.5750   75.7960   68.7230 N.pl3 155  ARG155      0.1354
    125  NH2       18.3890   77.5660   67.3110 N.pl3 155  ARG155      0.1354
    126  N         27.8330   76.7270   72.8380 N.3   172  HIS172     -0.1241
    127  CA        28.0430   78.0380   72.2560 C.3   172  HIS172      0.1621
    128  C         27.2470   79.0980   72.9980 C.2   172  HIS172      0.2264
    129  O         26.0210   79.0030   73.1430 O.2   172  HIS172     -0.2867
    130  CB        27.6090   78.0920   70.7910 C.3   172  HIS172      0.0745
    131  CG        27.7400   79.4570   70.1720 C.ar  172  HIS172      0.0817
    132  ND1       26.8870   79.9180   69.1890 N.ar  172  HIS172     -0.2268
    133  CD2       28.6360   80.4530   70.3840 C.ar  172  HIS172      0.1154
    134  CE1       27.2510   81.1370   68.8240 C.ar  172  HIS172      0.1986
    135  NE2       28.3110   81.4860   69.5340 N.ar  172  HIS172     -0.2212
    136  N         25.7520   82.5010   72.7860 N.3   174  GLY174     -0.1225
    137  CA        25.3480   83.4130   71.7240 C.3   174  GLY174      0.1811
    138  C         25.7030   84.8880   71.7520 C.2   174  GLY174      0.2280
    139  O         24.8530   85.7320   71.4850 O.2   174  GLY174     -0.2866
    140  N         28.2230   87.8370   70.1680 N.3   176  TYR176     -0.1241
    141  CA        29.1280   88.0200   69.0530 C.3   176  TYR176      0.1605
    142  C         29.7700   89.4080   69.0040 C.2   176  TYR176      0.2264
    143  O         29.1850   90.4190   69.4110 O.2   176  TYR176     -0.2867
    144  CB        28.4170   87.7920   67.7150 C.3   176  TYR176      0.0534
    145  CG        27.7400   86.4570   67.5090 C.ar  176  TYR176     -0.0201
    146  CD1       26.3670   86.3200   67.7040 C.ar  176  TYR176     -0.0009
    147  CD2       28.4430   85.3640   66.9990 C.ar  176  TYR176     -0.0009
    148  CE1       25.7030   85.1460   67.3810 C.ar  176  TYR176      0.0417
    149  CE2       27.7930   84.1790   66.6720 C.ar  176  TYR176      0.0417
    150  CZ        26.4170   84.0740   66.8610 C.ar  176  TYR176      0.1957
    151  OH        25.7370   82.9250   66.5170 O.3   176  TYR176     -0.2866
    152  N         18.8770   76.8080   61.5370 N.3   199  SER199     -0.1202
    153  CA        18.3370   78.0430   62.0890 C.3   199  SER199      0.2020
    154  C         19.3870   78.6370   63.0350 C.2   199  SER199      0.2619
    155  O         19.1490   78.8730   64.2220 O.2   199  SER199     -0.2717
    156  CB        17.0250   77.7870   62.8220 C.3   199  SER199      0.2103
    157  OG        16.3440   79.0170   62.9870 O.3   199  SER199     -0.2182
    158  N         20.5710   78.8470   62.4800 N.am  200  LEU200     -0.1965
    159  CA        21.6960   79.4180   63.2040 C.3   200  LEU200      0.1728
    160  C         22.2780   80.4750   62.2920 C.2   200  LEU200      0.2616
    161  O         22.9330   80.1560   61.3010 O.2   200  LEU200     -0.2715
    162  CB        22.7500   78.3370   63.5230 C.3   200  LEU200      0.0311
    163  CG        22.2750   77.2730   64.5260 C.3   200  LEU200      0.0022
    164  CD1       23.4020   76.2910   64.8440 C.3   200  LEU200      0.0001
    165  CD2       21.7860   77.9740   65.7830 C.3   200  LEU200      0.0001
    166  N         22.0310   81.7310   62.6320 N.am  201  GLU201     -0.1963
    167  CA        22.5090   82.8530   61.8290 C.3   201  GLU201      0.1733
    168  C         24.0170   82.8480   61.5450 C.2   201  GLU201      0.2616
    169  O         24.4200   83.1070   60.4000 O.2   201  GLU201     -0.2715
    170  CB        22.0860   84.1800   62.4780 C.3   201  GLU201      0.0429
    171  CG        22.7380   84.4490   63.8190 C.3   201  GLU201      0.1163
    172  CD        21.9020   85.3530   64.7010 C.2   201  GLU201      0.3649
    173  OE1       21.8060   86.5840   64.4510 O.co2 201  GLU201     -0.2457
    174  OE2       21.3340   84.8130   65.6600 O.co2 201  GLU201     -0.2457
    175  N         24.8400   82.5540   62.5590 N.am  202  GLN202     -0.1977
    176  CA        26.3030   82.5250   62.3900 C.3   202  GLN202      0.1601
    177  C         26.7720   81.5810   61.2540 C.2   202  GLN202      0.2287
    178  O         27.9110   81.6880   60.7650 O.2   202  GLN202     -0.2864
    179  CB        27.0020   82.1060   63.7020 C.3   202  GLN202      0.0394
    180  CG        26.7300   80.6570   64.1520 C.3   202  GLN202      0.0908
    181  CD        25.4490   80.5160   64.9610 C.2   202  GLN202      0.2608
    182  OE1       24.3930   81.0100   64.5560 O.2   202  GLN202     -0.2717
    183  NE2       25.5340   79.8310   66.1140 N.am  202  GLN202     -0.0878
    184  N         14.1210   81.4680   78.5420 N.3   225  ASP225     -0.1239
    185  CA        13.4790   81.0810   77.2980 C.3   225  ASP225      0.1674
    186  C         12.2350   80.2800   77.6390 C.2   225  ASP225      0.2266
    187  O         11.2320   80.3270   76.9260 O.2   225  ASP225     -0.2867
    188  CB        14.4200   80.2340   76.4330 C.3   225  ASP225      0.1410
    189  CG        15.6550   80.9970   75.9850 C.2   225  ASP225      0.3668
    190  OD1       15.5430   82.2120   75.7140 O.co2 225  ASP225     -0.2456
    191  OD2       16.7350   80.3740   75.8870 O.co2 225  ASP225     -0.2456
@<TRIPOS>BOND
     1    51    49   ar
     2    48    49    1
     3    48    47    1
     4    49    50   ar
     5    47    44    1
     6    41    39   ar
     7    41    42   ar
     8    39    38   ar
     9    43    44    1
    10    43    35   am
    11    33    34    1
    12    44    45    1
    13    34    35    1
    14    34    37    1
    15    42    40   ar
    16    35    36    2
    17   169   168    2
    18    38    40   ar
    19    38    37    1
    20   178   177    2
    21    45    52   am
    22    45    46    2
    23   177   176    1
    24   161   160    2
    25    52    53    1
    26   152   153    1
    27    57    56    1
    28   168   167    1
    29   168   175   am
    30   167   170    1
    31   167   166    1
    32    62    63    1
    33   153   156    1
    34   153   154    1
    35    56    53    1
    36   160   166   am
    37   160   159    1
    38   176   175    1
    39   176   179    1
    40   170   171    1
    41   158   154   am
    42   158   159    1
    43    53    54    1
    44    63    64    1
    45    63    66    1
    46   156   157    1
    47    55    54    2
    48    65    64    2
    49   154   155    2
    50   159   162    1
    51    23    21    1
    52    54    58   am
    53   162   163    1
    54   179   180    1
    55   171   172    1
    56    66    67    1
    57    71    70    1
    58   180   181    1
    59   173   172   ar
    60   163   164    1
    61   163   165    1
    62   182   181    2
    63    61    60    2
    64    58    59    1
    65    60    59    1
    66    21    20    2
    67    21    22    1
    68    67    68    1
    69    72    70    1
    70   172   174   ar
    71    70    69    2
    72   181   183   am
    73    20    19    1
    74    69    68    1
    75   115   116    1
    76   122   121    1
    77   122   123    2
    78   121   120    1
    79   151   150    1
    80    19    18    1
    81   149   150   ar
    82   149   147   ar
    83   120   119    1
    84   119   116    1
    85   150   148   ar
    86   147   145   ar
    87    18    17    1
    88    80    78   am
    89   116   117    1
    90   125   123    1
    91   148   146   ar
    92   123   124    1
    93   145   146   ar
    94   145   144    1
    95   117   118    2
    96   144   141    1
    97   113   112    1
    98    78    77    1
    99    78    79    2
   100    17    14    1
   101    77    74    1
   102     6     5    1
   103     6     7    1
   104   134   132   ar
   105   134   135   ar
   106     5     2    1
   107   142   141    1
   108   142   143    2
   109   141   140    1
   110   132   131   ar
   111    14    13    1
   112    14    15    1
   113   114   112    1
   114   135   133   ar
   115   112   109    1
   116    73    74    1
   117    74    75    1
   118     2     1    1
   119     2     3    1
   120    13    10   am
   121     7     1    1
   122   131   133   ar
   123   131   130    1
   124    15    16    2
   125   109   110    1
   126   109   108    1
   127     8     3   am
   128     8     9    1
   129     3     4    2
   130    10    11    2
   131    10     9    1
   132   130   127    1
   133   110   111    2
   134    75    76    2
   135     9    12    1
   136   139   138    2
   137   137   138    1
   138   137   136    1
   139   102   103    1
   140    89    87   am
   141   103   104    1
   142   103   106    1
   143   127   126    1
   144   127   128    1
   145    87    86    1
   146    87    88    2
   147    86    85    1
   148   104   105    2
   149   128   129    2
   150   106   107    1
   151    81    82    1
   152    82    85    1
   153    82    83    1
   154   101    99   ar
   155    90    83   am
   156    90    91    1
   157    32    31    1
   158    83    84    2
   159    99   100   ar
   160    99    98    1
   161    31    30    1
   162    91    92    1
   163    30    29    1
   164   190   189   ar
   165   191   189   ar
   166    94    92   am
   167    94    95    1
   168   189   188    1
   169    29    28    1
   170    98    95    1
   171    24    25    1
   172    92    93    2
   173    28    25    1
   174   188   185    1
   175    95    96    1
   176   187   186    2
   177    25    26    1
   178   185   186    1
   179   185   184    1
   180    26    27    2
   181    96    97    2
