@<TRIPOS>MOLECULE
tmp/1gqgB00.pdb
 146 141 0 0 0
SMALL
GASTEIGER

@<TRIPOS>ATOM
      1  N         79.7940   29.3220   10.3790 N.3    32  TYR32      -0.1241
      2  CA        80.4390   28.0370   10.5770 C.3    32  TYR32       0.1605
      3  C         79.4190   26.9230   10.6000 C.2    32  TYR32       0.2264
      4  O         78.4180   27.0040   11.3230 O.2    32  TYR32      -0.2867
      5  CB        81.1440   28.0370   11.9340 C.3    32  TYR32       0.0534
      6  CG        82.3940   28.8750   12.0010 C.ar   32  TYR32      -0.0201
      7  CD1       82.3260   30.2520   12.0800 C.ar   32  TYR32      -0.0009
      8  CD2       83.6480   28.2800   11.9850 C.ar   32  TYR32      -0.0009
      9  CE1       83.4780   31.0240   12.1330 C.ar   32  TYR32       0.0417
     10  CE2       84.7980   29.0400   12.0370 C.ar   32  TYR32       0.0417
     11  CZ        84.7040   30.4110   12.1070 C.ar   32  TYR32       0.1957
     12  OH        85.8460   31.1700   12.1590 O.3    32  TYR32      -0.2866
     13  N         84.6060   21.0510    9.3370 N.3    48  MET48      -0.1245
     14  CA        83.6930   22.1820    9.3560 C.3    48  MET48       0.1570
     15  C         83.8540   23.0340    8.1080 C.2    48  MET48       0.2261
     16  O         84.9220   23.0420    7.4700 O.2    48  MET48      -0.2867
     17  CB        83.8980   23.0370   10.6110 C.3    48  MET48       0.0387
     18  CG        85.3240   23.4910   10.8400 C.3    48  MET48       0.0595
     19  SD        85.4950   24.4830   12.3720 S.3    48  MET48      -0.1393
     20  CE        86.0300   25.9330   11.7080 C.3    48  MET48       0.0692
     21  N         90.7510   36.0310   12.5240 N.3    60  VAL60      -0.1245
     22  CA        90.9750   35.5380   13.8750 C.3    60  VAL60       0.1561
     23  C         92.3160   36.0870   14.3940 C.2    60  VAL60       0.2260
     24  O         93.2460   36.3370   13.6190 O.2    60  VAL60      -0.2867
     25  CB        90.9530   34.0000   13.9160 C.3    60  VAL60       0.0252
     26  CG1       92.1310   33.4160   13.1210 C.3    60  VAL60       0.0019
     27  CG2       90.9480   33.4940   15.3530 C.3    60  VAL60       0.0019
     28  N         97.1910   32.7640   16.7990 N.3    63  HIS63      -0.1241
     29  CA        97.2180   31.8280   17.9230 C.3    63  HIS63       0.1621
     30  C         97.8760   30.5220   17.5450 C.2    63  HIS63       0.2264
     31  O         98.1680   30.2710   16.3750 O.2    63  HIS63      -0.2867
     32  CB        95.7920   31.5160   18.3960 C.3    63  HIS63       0.0745
     33  CG        94.9280   30.9180   17.3310 C.ar   63  HIS63       0.0817
     34  ND1       94.3060   31.6800   16.3700 N.ar   63  HIS63      -0.2268
     35  CD2       94.6150   29.6260   17.0470 C.ar   63  HIS63       0.1154
     36  CE1       93.6330   30.8900   15.5490 C.ar   63  HIS63       0.1986
     37  NE2       93.7990   29.6390   15.9380 N.ar   63  HIS63      -0.2212
     38  N         97.6770   26.1290   18.5020 N.3    65  HIS65      -0.1241
     39  CA        96.9870   25.0180   19.1590 C.3    65  HIS65       0.1621
     40  C         98.0910   24.0380   19.5280 C.2    65  HIS65       0.2264
     41  O         98.8830   23.6610   18.6780 O.2    65  HIS65      -0.2867
     42  CB        95.9450   24.3600   18.2460 C.3    65  HIS65       0.0745
     43  CG        94.9780   25.3370   17.6600 C.ar   65  HIS65       0.0817
     44  ND1       94.0720   26.0300   18.4310 N.ar   65  HIS65      -0.2268
     45  CD2       94.8020   25.7730   16.3870 C.ar   65  HIS65       0.1154
     46  CE1       93.3710   26.8420   17.6600 C.ar   65  HIS65       0.1986
     47  NE2       93.7920   26.7020   16.4140 N.ar   65  HIS65      -0.2212
     48  N         95.4890   21.3920   12.4100 N.3    70  GLU70      -0.1231
     49  CA        94.4480   21.9190   11.5380 C.3    70  GLU70       0.1699
     50  C         94.8510   21.8750   10.1010 C.2    70  GLU70       0.2592
     51  O         96.0270   22.0070    9.7410 O.2    70  GLU70      -0.2718
     52  CB        94.0830   23.3730   11.8440 C.3    70  GLU70       0.0402
     53  CG        93.6810   23.5940   13.2700 C.3    70  GLU70       0.1161
     54  CD        94.8890   23.5310   14.1520 C.2    70  GLU70       0.3649
     55  OE1       95.9070   24.1910   13.8180 O.co2  70  GLU70      -0.2457
     56  OE2       94.8200   22.8120   15.1550 O.co2  70  GLU70      -0.2457
     57  N         93.8370   21.7220    9.2770 N.am   71  ASN71      -0.1960
     58  CA        94.0130   21.6540    7.8560 C.3    71  ASN71       0.1819
     59  C         93.0660   22.6420    7.2270 C.2    71  ASN71       0.2621
     60  O         91.8680   22.6140    7.5130 O.2    71  ASN71      -0.2715
     61  CB        93.7070   20.2350    7.4090 C.3    71  ASN71       0.1195
     62  CG        94.6700   19.2410    8.0130 C.2    71  ASN71       0.2630
     63  OD1       95.7840   19.0930    7.5270 O.2    71  ASN71      -0.2716
     64  ND2       94.2760   18.6090    9.1150 N.am   71  ASN71      -0.0877
     65  N         93.6050   23.5290    6.3920 N.am   72  PHE72      -0.1974
     66  CA        92.8110   24.5450    5.7120 C.3    72  PHE72       0.1639
     67  C         92.6610   24.1480    4.2570 C.2    72  PHE72       0.2290
     68  O         93.6490   23.9170    3.5860 O.2    72  PHE72      -0.2864
     69  CB        93.5140   25.9040    5.7900 C.3    72  PHE72       0.0560
     70  CG        93.4920   26.5070    7.1520 C.ar   72  PHE72      -0.0200
     71  CD1       94.3430   26.0300    8.1470 C.ar   72  PHE72      -0.0042
     72  CD2       92.5930   27.5070    7.4610 C.ar   72  PHE72      -0.0042
     73  CE1       94.3130   26.5810    9.4290 C.ar   72  PHE72      -0.0003
     74  CE2       92.5600   28.0590    8.7350 C.ar   72  PHE72      -0.0003
     75  CZ        93.4070   27.5970    9.7100 C.ar   72  PHE72      -0.0000
     76  N         99.3050   30.7870   13.6240 N.3   109  HIS109     -0.1241
     77  CA        98.5900   31.0200   12.3750 C.3   109  HIS109      0.1621
     78  C         97.4390   31.9970   12.5400 C.2   109  HIS109      0.2264
     79  O         97.0000   32.2930   13.6550 O.2   109  HIS109     -0.2867
     80  CB        98.0630   29.6930   11.8120 C.3   109  HIS109      0.0745
     81  CG        97.1630   28.9550   12.7490 C.ar  109  HIS109      0.0817
     82  ND1       97.6320   28.3220   13.8820 N.ar  109  HIS109     -0.2268
     83  CD2       95.8220   28.7340   12.7210 C.ar  109  HIS109      0.1154
     84  CE1       96.6190   27.7510   14.5150 C.ar  109  HIS109      0.1986
     85  NE2       95.5140   27.9840   13.8310 N.ar  109  HIS109     -0.2212
     86  N         94.2150   33.8640    9.5220 N.3   111  PHE111     -0.1241
     87  CA        93.7580   33.9120    8.1370 C.3   111  PHE111      0.1605
     88  C         92.9820   35.1940    7.8830 C.2   111  PHE111      0.2264
     89  O         92.6100   35.8900    8.8070 O.2   111  PHE111     -0.2867
     90  CB        92.8490   32.7210    7.8190 C.3   111  PHE111      0.0534
     91  CG        91.5390   32.7330    8.5750 C.ar  111  PHE111     -0.0203
     92  CD1       91.4340   32.1420    9.8280 C.ar  111  PHE111     -0.0042
     93  CD2       90.4100   33.3370    8.0230 C.ar  111  PHE111     -0.0042
     94  CE1       90.2350   32.1620   10.5300 C.ar  111  PHE111     -0.0003
     95  CE2       89.2040   33.3560    8.7110 C.ar  111  PHE111     -0.0003
     96  CZ        89.1150   32.7750    9.9680 C.ar  111  PHE111     -0.0000
     97  N         85.8780   27.9390    3.3690 N.3   120  MET120     -0.1245
     98  CA        87.0540   27.3310    3.9460 C.3   120  MET120      0.1570
     99  C         86.5670   26.0330    4.6080 C.2   120  MET120      0.2261
    100  O         85.6380   26.0630    5.4230 O.2   120  MET120     -0.2867
    101  CB        87.6080   28.3400    4.9780 C.3   120  MET120      0.0387
    102  CG        88.8780   28.0180    5.7250 C.3   120  MET120      0.0595
    103  SD        89.5190   29.5970    6.5020 S.3   120  MET120     -0.1393
    104  CE        88.1390   30.0380    7.6090 C.3   120  MET120      0.0692
    105  N         87.6080   23.2330    7.1070 N.3   122  GLY122     -0.1225
    106  CA        88.6130   23.0230    8.1260 C.3   122  GLY122      0.1811
    107  C         88.5260   21.5890    8.6120 C.2   122  GLY122      0.2280
    108  O         87.4440   21.1280    8.9660 O.2   122  GLY122     -0.2866
    109  N         90.1730   19.2320   11.4710 N.3   124  ILE124     -0.1245
    110  CA        90.9680   19.3210   12.6890 C.3   124  ILE124      0.1561
    111  C         91.0190   17.9690   13.3860 C.2   124  ILE124      0.2260
    112  O         90.0030   17.2680   13.5090 O.2   124  ILE124     -0.2867
    113  CB        90.4060   20.4160   13.6300 C.3   124  ILE124      0.0252
    114  CG1       90.1550   21.7120   12.8440 C.3   124  ILE124      0.0019
    115  CG2       91.3390   20.6520   14.8400 C.3   124  ILE124      0.0019
    116  CD1       88.7510   21.7930   12.2720 C.3   124  ILE124      0.0001
    117  N         87.2500   19.9090   18.7190 N.3   129  PHE129     -0.1241
    118  CA        87.7820   21.2640   18.6650 C.3   129  PHE129      0.1605
    119  C         86.6710   22.3030   18.4740 C.2   129  PHE129      0.2264
    120  O         86.7930   23.4460   18.9050 O.2   129  PHE129     -0.2867
    121  CB        88.7810   21.3460   17.4940 C.3   129  PHE129      0.0534
    122  CG        89.4060   22.6890   17.3270 C.ar  129  PHE129     -0.0203
    123  CD1       90.1700   23.2310   18.3480 C.ar  129  PHE129     -0.0042
    124  CD2       89.2180   23.4120   16.1620 C.ar  129  PHE129     -0.0042
    125  CE1       90.7450   24.4820   18.2150 C.ar  129  PHE129     -0.0003
    126  CE2       89.7950   24.6640   16.0140 C.ar  129  PHE129     -0.0003
    127  CZ        90.5500   25.1990   17.0440 C.ar  129  PHE129     -0.0000
    128  N         85.1490   25.2850   20.7060 N.3   132  LEU132     -0.1231
    129  CA        85.6290   26.6630   20.6790 C.3   132  LEU132      0.1693
    130  C         84.6600   27.5800   19.9350 C.2   132  LEU132      0.2592
    131  O         84.3370   28.6730   20.3970 O.2   132  LEU132     -0.2718
    132  CB        87.0090   26.7140   20.0110 C.3   132  LEU132      0.0284
    133  CG        87.5250   28.1040   19.6430 C.3   132  LEU132      0.0019
    134  CD1       87.7440   28.9670   20.8660 C.3   132  LEU132      0.0001
    135  CD2       88.8170   27.9620   18.8440 C.3   132  LEU132      0.0001
    136  N         84.1980   27.1290   18.7770 N.am  133  PHE133     -0.1976
    137  CA        83.3010   27.9350   17.9600 C.3   133  PHE133      0.1639
    138  C         81.8710   28.0110   18.5070 C.2   133  PHE133      0.2290
    139  O         81.1530   28.9770   18.2550 O.2   133  PHE133     -0.2864
    140  CB        83.3730   27.4770   16.5000 C.3   133  PHE133      0.0560
    141  CG        84.7570   27.5870   15.9210 C.ar  133  PHE133     -0.0200
    142  CD1       85.3090   28.8330   15.6390 C.ar  133  PHE133     -0.0042
    143  CD2       85.5160   26.4570   15.6860 C.ar  133  PHE133     -0.0042
    144  CE1       86.5930   28.9360   15.1240 C.ar  133  PHE133     -0.0003
    145  CE2       86.7950   26.5530   15.1770 C.ar  133  PHE133     -0.0003
    146  CZ        87.3340   27.7910   14.8950 C.ar  133  PHE133     -0.0000
@<TRIPOS>BOND
     1    97    98    1
     2    68    67    2
     3    98    99    1
     4    98   101    1
     5    67    66    1
     6    99   100    2
     7   101   102    1
     8    66    69    1
     9    66    65    1
    10   102   103    1
    11    69    70    1
    12    65    59   am
    13   103   104    1
    14   105   106    1
    15    70    72   ar
    16    70    71   ar
    17    59    60    2
    18    59    58    1
    19    61    58    1
    20    61    62    1
    21    72    74   ar
    22    16    15    2
    23    63    62    2
    24    90    87    1
    25    90    91    1
    26    58    57    1
    27    88    87    1
    28    88    89    2
    29    62    64   am
    30    93    91   ar
    31    93    95   ar
    32    15    14    1
    33   106   107    1
    34    87    86    1
    35    71    73   ar
    36    91    92   ar
    37   107   108    2
    38    95    96   ar
    39    74    75   ar
    40    57    50   am
    41    13    14    1
    42    14    17    1
    43    73    75   ar
    44    51    50    2
    45    92    94   ar
    46    96    94   ar
    47    50    49    1
    48     1     2    1
    49     2     3    1
    50     2     5    1
    51     3     4    2
    52    17    18    1
    53    18    19    1
    54   109   110    1
    55    49    52    1
    56    49    48    1
    57    20    19    1
    58    80    77    1
    59    80    81    1
    60    52    53    1
    61     5     6    1
    62     8     6   ar
    63     8    10   ar
    64     6     7   ar
    65    10    11   ar
    66     7     9   ar
    67    11     9   ar
    68    11    12    1
    69   116   114    1
    70    77    78    1
    71    77    76    1
    72    21    22    1
    73    78    79    2
    74   110   111    1
    75   110   113    1
    76    83    81   ar
    77    83    85   ar
    78    81    82   ar
    79   114   113    1
    80    26    25    1
    81    53    54    1
    82   111   112    2
    83    24    23    2
    84   113   115    1
    85    55    54   ar
    86    85    84   ar
    87    22    25    1
    88    22    23    1
    89    82    84   ar
    90    25    27    1
    91    54    56   ar
    92   146   144   ar
    93   146   145   ar
    94   144   142   ar
    95   145   143   ar
    96    36    37   ar
    97    36    34   ar
    98   142   141   ar
    99   143   141   ar
   100   141   140    1
   101    37    35   ar
   102   126   124   ar
   103   126   127   ar
   104   124   122   ar
   105    34    33   ar
   106    31    30    2
   107    45    47   ar
   108    45    43   ar
   109    47    46   ar
   110   140   137    1
   111    28    29    1
   112   127   125   ar
   113    35    33   ar
   114   122   121    1
   115   122   123   ar
   116    33    32    1
   117   121   118    1
   118    30    29    1
   119    46    44   ar
   120    43    42    1
   121    43    44   ar
   122    29    32    1
   123   137   138    1
   124   137   136    1
   125   125   123   ar
   126    42    39    1
   127   139   138    2
   128   119   118    1
   129   119   120    2
   130    38    39    1
   131   118   117    1
   132    41    40    2
   133   136   130   am
   134   135   133    1
   135    39    40    1
   136   133   132    1
   137   133   134    1
   138   130   131    2
   139   130   129    1
   140   132   129    1
   141   129   128    1
