@<TRIPOS>MOLECULE
tmp/1gqhD00.pdb
 92 87 0 0 0
SMALL
GASTEIGER

@<TRIPOS>ATOM
      1  N         95.4820   32.9630  -17.9550 N.3    80  GLN80      -0.1245
      2  CA        95.5890   34.3770  -18.2220 C.3    80  GLN80       0.1566
      3  C         94.9770   34.7140  -19.5740 C.2    80  GLN80       0.2260
      4  O         95.0900   33.9490  -20.5410 O.2    80  GLN80      -0.2867
      5  CB        97.0400   34.8330  -18.1690 C.3    80  GLN80       0.0367
      6  CG        97.1670   36.2890  -18.4580 C.3    80  GLN80       0.0905
      7  CD        98.3750   36.9230  -17.8140 C.2    80  GLN80       0.2608
      8  OE1       98.5730   38.1410  -17.9360 O.2    80  GLN80      -0.2717
      9  NE2       99.1800   36.1230  -17.1270 N.am   80  GLN80      -0.0878
     10  N         94.5640   37.9430  -22.4260 N.3    82  TRP82      -0.1241
     11  CA        94.9840   39.2780  -22.8540 C.3    82  TRP82       0.1605
     12  C         94.0030   39.7680  -23.8930 C.2    82  TRP82       0.2264
     13  O         93.5070   38.9750  -24.6860 O.2    82  TRP82      -0.2867
     14  CB        96.3440   39.2380  -23.5160 C.3    82  TRP82       0.0550
     15  CG        97.5270   38.9620  -22.6370 C.ar   82  TRP82       0.0003
     16  CD1       98.4060   39.8730  -22.1230 C.ar   82  TRP82       0.0946
     17  CD2       97.9940   37.6810  -22.2250 C.ar   82  TRP82       0.0152
     18  NE1       99.3900   39.2290  -21.4150 N.ar   82  TRP82      -0.2442
     19  CE2       99.1610   37.8810  -21.4660 C.ar   82  TRP82       0.0810
     20  CE3       97.5370   36.3750  -22.4190 C.ar   82  TRP82       0.0012
     21  CZ2       99.8720   36.8260  -20.8940 C.ar   82  TRP82       0.0191
     22  CZ3       98.2440   35.3360  -21.8690 C.ar   82  TRP82       0.0001
     23  CH2       99.4050   35.5660  -21.1140 C.ar   82  TRP82       0.0015
     24  N         94.3720   37.3530  -14.9310 N.3    94  VAL94      -0.1245
     25  CA        94.5220   35.9240  -14.6970 C.3    94  VAL94       0.1561
     26  C         93.1940   35.4880  -14.0750 C.2    94  VAL94       0.2260
     27  O         92.8310   35.9280  -12.9790 O.2    94  VAL94      -0.2867
     28  CB        95.6460   35.6180  -13.7360 C.3    94  VAL94       0.0252
     29  CG1       95.6340   34.1230  -13.4100 C.3    94  VAL94       0.0019
     30  CG2       96.9720   36.0250  -14.3600 C.3    94  VAL94       0.0019
     31  N         96.7910   31.8280  -21.9740 N.3   112  GLN112     -0.1245
     32  CA        97.8350   30.8980  -21.5550 C.3   112  GLN112      0.1566
     33  C         97.3240   30.1510  -20.3300 C.2   112  GLN112      0.2260
     34  O         96.8390   30.7630  -19.3870 O.2   112  GLN112     -0.2867
     35  CB        99.1470   31.6370  -21.2350 C.3   112  GLN112      0.0367
     36  CG       100.2450   30.7490  -20.6500 C.3   112  GLN112      0.0905
     37  CD       101.5750   31.4640  -20.5560 C.2   112  GLN112      0.2608
     38  OE1      101.7900   32.4650  -21.2390 O.2   112  GLN112     -0.2717
     39  NE2      102.4620   30.9730  -19.7010 N.am  112  GLN112     -0.0878
     40  N         97.5770   28.3470  -16.9210 N.3   114  GLN114     -0.1245
     41  CA        98.4280   28.4460  -15.7330 C.3   114  GLN114      0.1566
     42  C         98.4420   27.1950  -14.8620 C.2   114  GLN114      0.2260
     43  O         99.5100   26.6720  -14.5890 O.2   114  GLN114     -0.2867
     44  CB        98.0250   29.6580  -14.8720 C.3   114  GLN114      0.0367
     45  CG        98.6750   29.7510  -13.4470 C.3   114  GLN114      0.0905
     46  CD        98.4730   31.1470  -12.7550 C.2   114  GLN114      0.2608
     47  OE1       97.5090   31.3560  -12.0010 O.2   114  GLN114     -0.2717
     48  NE2       99.4030   32.0770  -13.0020 N.am  114  GLN114     -0.0878
     49  N        101.3360   41.9190  -22.9020 N.3   167  ARG167     -0.1231
     50  CA       102.1010   42.6150  -21.8790 C.3   167  ARG167      0.1694
     51  C        102.5950   41.6480  -20.8270 C.2   167  ARG167      0.2592
     52  O        101.9870   40.6030  -20.5940 O.2   167  ARG167     -0.2718
     53  CB       101.3320   43.7830  -21.2650 C.3   167  ARG167      0.0321
     54  CG       100.0220   43.4280  -20.5870 C.3   167  ARG167      0.0489
     55  CD        99.2050   44.6690  -20.2910 C.3   167  ARG167      0.2205
     56  NE        99.9460   45.6230  -19.4540 N.pl3 167  ARG167     -0.0865
     57  CZ        99.7870   46.9370  -19.4980 C.cat 167  ARG167      0.5346
     58  NH1       98.9290   47.4840  -20.3640 N.pl3 167  ARG167      0.1354
     59  NH2      100.4880   47.7080  -18.6760 N.pl3 167  ARG167      0.1354
     60  N        103.7010   42.0180  -20.2050 N.am  168  THR168     -0.1953
     61  CA       104.4130   41.1490  -19.2850 C.3   168  THR168      0.1897
     62  C        104.6610   41.7980  -17.9150 C.2   168  THR168      0.2313
     63  O        105.5670   41.3880  -17.1920 O.2   168  THR168     -0.2863
     64  CB       105.7750   40.7880  -19.9130 C.3   168  THR168      0.1794
     65  OG1      106.4780   41.9890  -20.2440 O.3   168  THR168     -0.2208
     66  CG2      105.5980   40.1180  -21.2720 C.3   168  THR168      0.0378
     67  N        102.2820   41.8900  -15.5360 N.3   170  THR170     -0.1203
     68  CA       101.2050   41.3940  -14.6990 C.3   170  THR170      0.1994
     69  C        101.6590   41.3280  -13.2460 C.2   170  THR170      0.2618
     70  O        102.7310   40.8030  -12.9490 O.2   170  THR170     -0.2717
     71  CB       100.8110   39.9600  -15.1170 C.3   170  THR170      0.1784
     72  OG1      100.6300   39.8840  -16.5370 O.3   170  THR170     -0.2211
     73  CG2       99.4530   39.5980  -14.5610 C.3   170  THR170      0.0376
     74  N        100.8550   41.8790  -12.3470 N.am  171  VAL171     -0.1965
     75  CA       101.1180   41.7780  -10.9220 C.3   171  VAL171      0.1727
     76  C         99.7880   41.5160  -10.2480 C.2   171  VAL171      0.2616
     77  O         98.7990   42.1810  -10.5610 O.2   171  VAL171     -0.2715
     78  CB       101.6430   43.0950  -10.3400 C.3   171  VAL171      0.0290
     79  CG1      102.1690   42.8630   -8.9490 C.3   171  VAL171      0.0023
     80  CG2      102.7170   43.7040  -11.2400 C.3   171  VAL171      0.0023
     81  N         99.7540   40.5530   -9.3310 N.am  172  ASN172     -0.1958
     82  CA        98.5170   40.2120   -8.6410 C.3   172  ASN172      0.1819
     83  C         97.3940   39.8030   -9.6220 C.2   172  ASN172      0.2621
     84  O         96.2140   40.0970   -9.3970 O.2   172  ASN172     -0.2715
     85  CB        98.0680   41.3600   -7.7080 C.3   172  ASN172      0.1195
     86  CG        98.9590   41.5010   -6.4480 C.2   172  ASN172      0.2630
     87  OD1       99.5830   40.5280   -5.9940 O.2   172  ASN172     -0.2716
     88  ND2       99.0240   42.7240   -5.9000 N.am  172  ASN172     -0.0877
     89  N         97.7670   39.1320  -10.7140 N.am  173  GLY173     -0.1954
     90  CA        96.8080   38.6290  -11.6990 C.3   173  GLY173      0.1869
     91  C         96.1500   39.6510  -12.6260 C.2   173  GLY173      0.2309
     92  O         95.0790   39.3740  -13.2060 O.2   173  GLY173     -0.2863
@<TRIPOS>BOND
     1    13    12    2
     2    12    11    1
     3    14    11    1
     4    14    15    1
     5    49    50    1
     6    11    10    1
     7    15    17   ar
     8    15    16   ar
     9    20    17   ar
    10    20    22   ar
    11    17    19   ar
    12    16    18   ar
    13    31    32    1
    14    50    53    1
    15    50    51    1
    16    22    23   ar
    17    32    35    1
    18    32    33    1
    19    19    18   ar
    20    19    21   ar
    21    66    64    1
    22    53    54    1
    23    38    37    2
    24    35    36    1
    25    23    21   ar
    26    51    52    2
    27    51    60   am
    28    36    37    1
    29    54    55    1
    30    37    39   am
    31     4     3    2
    32    58    57    1
    33    33    34    2
    34    55    56    1
    35    65    64    1
    36    60    61    1
    37    64    61    1
    38     3     2    1
    39    57    56    2
    40    57    59    1
    41    61    62    1
    42     6     5    1
    43     6     7    1
    44     2     5    1
    45     2     1    1
    46     8     7    2
    47    62    63    2
    48     7     9   am
    49    40    41    1
    50    72    71    1
    51    41    44    1
    52    41    42    1
    53    67    68    1
    54    71    68    1
    55    71    73    1
    56    24    25    1
    57    44    45    1
    58    42    43    2
    59    68    69    1
    60    25    26    1
    61    25    28    1
    62    30    28    1
    63    26    27    2
    64    28    29    1
    65    45    46    1
    66    69    70    2
    67    69    74   am
    68    92    91    2
    69    48    46   am
    70    46    47    2
    71    91    90    1
    72    74    75    1
    73    90    89    1
    74    80    78    1
    75    75    78    1
    76    75    76    1
    77    89    83   am
    78    77    76    2
    79    78    79    1
    80    76    81   am
    81    83    84    2
    82    83    82    1
    83    81    82    1
    84    82    85    1
    85    85    86    1
    86    86    87    2
    87    86    88   am
