@<TRIPOS>MOLECULE
tmp/1gqhA03.pdb
 114 111 0 0 0
SMALL
GASTEIGER

@<TRIPOS>ATOM
      1  N         70.2580    2.0890   65.5380 N.3    82  GLN82      -0.1245
      2  CA        69.2600    1.0530   65.7230 C.3    82  GLN82       0.1566
      3  C         68.3130    1.4640   66.8340 C.2    82  GLN82       0.2260
      4  O         68.7290    2.0870   67.8280 O.2    82  GLN82      -0.2867
      5  CB        69.8980   -0.3220   66.0040 C.3    82  GLN82       0.0367
      6  CG        68.8480   -1.4330   66.1200 C.3    82  GLN82       0.0905
      7  CD        69.3090   -2.8220   65.6800 C.2    82  GLN82       0.2608
      8  OE1       68.5010   -3.7650   65.7020 O.2    82  GLN82      -0.2717
      9  NE2       70.5740   -2.9620   65.2800 N.am   82  GLN82      -0.0878
     10  N         64.9930   -0.2110   69.1780 N.3    84  TRP84      -0.1241
     11  CA        64.1920   -1.3760   69.5580 C.3    84  TRP84       0.1605
     12  C         62.9830   -0.8380   70.3230 C.2    84  TRP84       0.2264
     13  O         63.0780    0.1790   71.0010 O.2    84  TRP84      -0.2867
     14  CB        64.9440   -2.3360   70.4730 C.3    84  TRP84       0.0550
     15  CG        66.1210   -3.0410   69.8980 C.ar   84  TRP84       0.0003
     16  CD1       66.1700   -4.3280   69.4640 C.ar   84  TRP84       0.0946
     17  CD2       67.4440   -2.5240   69.7540 C.ar   84  TRP84       0.0152
     18  NE1       67.4400   -4.6470   69.0540 N.ar   84  TRP84      -0.2442
     19  CE2       68.2400   -3.5480   69.2110 C.ar   84  TRP84       0.0810
     20  CE3       68.0430   -1.2870   70.0320 C.ar   84  TRP84       0.0012
     21  CZ2       69.5940   -3.3810   68.9440 C.ar   84  TRP84       0.0191
     22  CZ3       69.3900   -1.1210   69.7630 C.ar   84  TRP84       0.0001
     23  CH2       70.1500   -2.1620   69.2270 C.ar   84  TRP84       0.0015
     24  N         67.0180   -0.4890   61.8740 N.3    96  VAL96      -0.1245
     25  CA        68.1670    0.3810   61.8160 C.3    96  VAL96       0.1561
     26  C         67.7380    1.5730   60.9650 C.2    96  VAL96       0.2260
     27  O         67.4280    1.4130   59.7720 O.2    96  VAL96      -0.2867
     28  CB        69.3550   -0.2840   61.1680 C.3    96  VAL96       0.0252
     29  CG1       70.5300    0.7100   61.0880 C.3    96  VAL96       0.0019
     30  CG2       69.7350   -1.5230   61.9530 C.3    96  VAL96       0.0019
     31  N         70.9790    2.2560   69.6140 N.3   114  GLN114     -0.1245
     32  CA        72.4150    2.0710   69.4880 C.3   114  GLN114      0.1566
     33  C         72.9050    2.8410   68.2620 C.2   114  GLN114      0.2260
     34  O         72.3370    2.7130   67.1680 O.2   114  GLN114     -0.2867
     35  CB        72.8030    0.5800   69.4090 C.3   114  GLN114      0.0367
     36  CG        74.2780    0.3420   69.0940 C.3   114  GLN114      0.0905
     37  CD        74.7810   -1.0410   69.4960 C.2   114  GLN114      0.2608
     38  OE1       74.1150   -1.7650   70.2350 O.2   114  GLN114     -0.2717
     39  NE2       75.9700   -1.4030   69.0210 N.am  114  GLN114     -0.0878
     40  N         75.1940    3.6020   65.2180 N.3   116  GLN116     -0.1245
     41  CA        75.9970    2.7670   64.3240 C.3   116  GLN116      0.1566
     42  C         77.1070    3.4800   63.5610 C.2   116  GLN116      0.2260
     43  O         78.2760    3.0530   63.5950 O.2   116  GLN116     -0.2867
     44  CB        75.1040    2.0550   63.3110 C.3   116  GLN116      0.0367
     45  CG        75.8900    1.2960   62.2280 C.3   116  GLN116      0.0905
     46  CD        75.0110    0.3570   61.4010 C.2   116  GLN116      0.2608
     47  OE1       74.1450    0.8030   60.6430 O.2   116  GLN116     -0.2717
     48  NE2       75.2310   -0.9440   61.5560 N.am  116  GLN116     -0.0878
     49  N         65.1490   -7.4880   76.7160 N.3   175  THR175     -0.1204
     50  CA        66.3790   -7.8840   76.0400 C.3   175  THR175      0.1979
     51  C         66.2290   -7.5440   74.5550 C.2   175  THR175      0.2460
     52  O         65.3950   -8.1340   73.8570 O.2   175  THR175     -0.2732
     53  CB        66.6430   -9.3990   76.1790 C.3   175  THR175      0.1783
     54  OG1       66.7290   -9.7720   77.5610 O.3   175  THR175     -0.2211
     55  CG2       68.0300   -9.7540   75.6260 C.3   175  THR175      0.0376
     56  N         66.9950   -6.5800   74.0710 N.am  176  PRO176     -0.2717
     57  CA        66.9020   -6.1810   72.6550 C.3   176  PRO176      0.1535
     58  C         67.1680   -7.3720   71.7540 C.2   176  PRO176      0.2598
     59  O         68.1720   -8.0350   71.9370 O.2   176  PRO176     -0.2715
     60  CB        68.0090   -5.1340   72.5120 C.3   176  PRO176      0.0310
     61  CG        68.1630   -4.5760   73.9160 C.3   176  PRO176      0.0237
     62  CD        67.9620   -5.7630   74.8250 C.3   176  PRO176      0.0939
     63  N         66.2740   -7.6660   70.8220 N.am  177  ARG177     -0.1964
     64  CA        66.4920   -8.8350   69.9840 C.3   177  ARG177      0.1729
     65  C         67.7580   -8.6790   69.1440 C.2   177  ARG177      0.2617
     66  O         68.1210   -7.5790   68.7400 O.2   177  ARG177     -0.2715
     67  CB        65.2880   -9.1380   69.1010 C.3   177  ARG177      0.0348
     68  CG        64.9740   -8.0740   68.0750 C.3   177  ARG177      0.0492
     69  CD        63.5830   -8.2530   67.4970 C.3   177  ARG177      0.2205
     70  NE        63.4770   -9.5760   66.8960 N.pl3 177  ARG177     -0.0865
     71  CZ        62.3990  -10.3310   66.9280 C.cat 177  ARG177      0.5346
     72  NH1       61.3020   -9.9110   67.5400 N.pl3 177  ARG177      0.1354
     73  NH2       62.4270  -11.5150   66.3340 N.pl3 177  ARG177      0.1354
     74  N         68.4330   -9.7890   68.9030 N.am  178  THR178     -0.1937
     75  CA        69.6880   -9.7420   68.1750 C.3   178  THR178      0.2028
     76  C         69.6320  -10.5400   66.8910 C.2   178  THR178      0.2642
     77  O         70.6060  -11.2080   66.5370 O.2   178  THR178     -0.2714
     78  CB        70.7960  -10.2920   69.0540 C.3   178  THR178      0.1808
     79  OG1       70.3960  -11.5660   69.5850 O.3   178  THR178     -0.2208
     80  CG2       70.9440   -9.4310   70.2860 C.3   178  THR178      0.0379
     81  N         68.4920  -10.5020   66.2060 N.am  179  ASP179     -0.1957
     82  CA        68.3790  -11.2700   64.9670 C.3   179  ASP179      0.1840
     83  C         68.1470  -10.3500   63.7770 C.2   179  ASP179      0.2623
     84  O         67.5410  -10.7400   62.7970 O.2   179  ASP179     -0.2715
     85  CB        67.3160  -12.3790   65.0600 C.3   179  ASP179      0.1450
     86  CG        65.9610  -11.8580   65.4920 C.2   179  ASP179      0.3671
     87  OD1       65.8830  -10.6920   65.9200 O.co2 179  ASP179     -0.2456
     88  OD2       64.9170  -12.5500   65.4500 O.co2 179  ASP179     -0.2456
     89  N         68.6480   -9.1250   63.8930 N.am  180  THR180     -0.1937
     90  CA        68.5530   -8.1340   62.8360 C.3   180  THR180      0.2028
     91  C         69.1770   -8.5990   61.5390 C.2   180  THR180      0.2642
     92  O         70.2960   -9.1180   61.5230 O.2   180  THR180     -0.2714
     93  CB        69.3020   -6.8690   63.2140 C.3   180  THR180      0.1808
     94  OG1       69.1600   -6.6130   64.6130 O.3   180  THR180     -0.2208
     95  CG2       68.6720   -5.6470   62.5010 C.3   180  THR180      0.0379
     96  N         68.4560   -8.3920   60.4480 N.am  181  VAL181     -0.1963
     97  CA        69.0030   -8.6710   59.1430 C.3   181  VAL181      0.1727
     98  C         68.4860   -7.6210   58.2020 C.2   181  VAL181      0.2616
     99  O         67.2860   -7.2850   58.2220 O.2   181  VAL181     -0.2715
    100  CB        68.5670  -10.0170   58.5990 C.3   181  VAL181      0.0290
    101  CG1       69.2610  -10.2660   57.2700 C.3   181  VAL181      0.0023
    102  CG2       68.8660  -11.1240   59.5940 C.3   181  VAL181      0.0023
    103  N         69.3870   -7.1130   57.3720 N.am  182  ASN182     -0.1958
    104  CA        69.0570   -6.0490   56.4430 C.3   182  ASN182      0.1819
    105  C         68.4220   -4.8890   57.1670 C.2   182  ASN182      0.2621
    106  O         67.5660   -4.2080   56.6140 O.2   182  ASN182     -0.2715
    107  CB        68.1430   -6.5350   55.3130 C.3   182  ASN182      0.1195
    108  CG        68.8450   -7.4980   54.3830 C.2   182  ASN182      0.2630
    109  OD1       70.0730   -7.4630   54.2670 O.2   182  ASN182     -0.2716
    110  ND2       68.0750   -8.3890   53.7420 N.am  182  ASN182     -0.0877
    111  N         68.8300   -4.6840   58.4210 N.am  183  GLY183     -0.1954
    112  CA        68.3550   -3.5530   59.1890 C.3   183  GLY183      0.1869
    113  C         66.9820   -3.7160   59.8050 C.2   183  GLY183      0.2309
    114  O         66.3610   -2.7200   60.1600 O.2   183  GLY183     -0.2863
@<TRIPOS>BOND
     1   110   108   am
     2   109   108    2
     3   108   107    1
     4   107   104    1
     5   104   105    1
     6   104   103    1
     7   106   105    2
     8   105   111   am
     9   101   100    1
    10   103    98   am
    11    98    99    2
    12    98    97    1
    13   111   112    1
    14   100    97    1
    15   100   102    1
    16    97    96    1
    17   112   113    1
    18    27    26    2
    19   113   114    2
    20    96    91   am
    21    47    46    2
    22    26    25    1
    23    29    28    1
    24    28    25    1
    25    28    30    1
    26    46    48   am
    27    46    45    1
    28    92    91    2
    29    91    90    1
    30    25    24    1
    31    45    44    1
    32    95    93    1
    33    84    83    2
    34    90    93    1
    35    90    89    1
    36    93    94    1
    37    44    41    1
    38    42    43    2
    39    42    41    1
    40    83    89   am
    41    83    82    1
    42    41    40    1
    43    82    85    1
    44    82    81    1
    45    85    86    1
    46     9     7   am
    47    88    86   ar
    48    86    87   ar
    49     1     2    1
    50     7     8    2
    51     7     6    1
    52     2     5    1
    53     2     3    1
    54     5     6    1
    55    81    76   am
    56    73    71    1
    57    77    76    2
    58     3     4    2
    59    76    75    1
    60    70    71    2
    61    70    69    1
    62    71    72    1
    63    34    33    2
    64    69    68    1
    65    68    67    1
    66    75    74    1
    67    75    78    1
    68    33    32    1
    69    66    65    2
    70    74    65   am
    71    21    19   ar
    72    21    23   ar
    73    39    37   am
    74    18    19   ar
    75    18    16   ar
    76    78    79    1
    77    78    80    1
    78    36    35    1
    79    36    37    1
    80    67    64    1
    81    65    64    1
    82    10    11    1
    83    19    17   ar
    84    23    22   ar
    85    35    32    1
    86    16    15   ar
    87    32    31    1
    88    37    38    2
    89    11    12    1
    90    11    14    1
    91    17    15   ar
    92    17    20   ar
    93    22    20   ar
    94    15    14    1
    95    64    63    1
    96    12    13    2
    97    63    58   am
    98    58    59    2
    99    58    57    1
   100    60    57    1
   101    60    61    1
   102    57    56    1
   103    52    51    2
   104    61    62    1
   105    56    51   am
   106    56    62    1
   107    51    50    1
   108    55    53    1
   109    50    53    1
   110    50    49    1
   111    53    54    1
