@<TRIPOS>MOLECULE
tmp/1gqhC00.pdb
 92 87 0 0 0
SMALL
GASTEIGER

@<TRIPOS>ATOM
      1  N         72.2470    0.2400   45.0340 N.3    81  GLN81      -0.1245
      2  CA        73.2550   -0.7890   45.0200 C.3    81  GLN81       0.1566
      3  C         74.1770   -0.6270   43.8180 C.2    81  GLN81       0.2260
      4  O         73.7440   -0.3090   42.7100 O.2    81  GLN81      -0.2867
      5  CB        72.5990   -2.1780   44.9960 C.3    81  GLN81       0.0367
      6  CG        73.6100   -3.3020   45.0040 C.3    81  GLN81       0.0905
      7  CD        73.0730   -4.5760   45.6430 C.2    81  GLN81       0.2608
      8  OE1       73.8480   -5.4910   45.9170 O.2    81  GLN81      -0.2717
      9  NE2       71.7590   -4.6220   45.9160 N.am   81  GLN81      -0.0878
     10  N         77.4800   -2.5520   41.7760 N.3    83  TRP83      -0.1241
     11  CA        78.2770   -3.7680   41.5980 C.3    83  TRP83       0.1605
     12  C         79.5310   -3.4220   40.8070 C.2    83  TRP83       0.2264
     13  O         79.4640   -2.6260   39.8750 O.2    83  TRP83      -0.2867
     14  CB        77.5250   -4.8070   40.7770 C.3    83  TRP83       0.0550
     15  CG        76.3640   -5.4900   41.4410 C.ar   83  TRP83       0.0003
     16  CD1       76.3640   -6.7280   42.0030 C.ar   83  TRP83       0.0946
     17  CD2       75.0150   -5.0100   41.5340 C.ar   83  TRP83       0.0152
     18  NE1       75.1100   -7.0350   42.4680 N.ar   83  TRP83      -0.2442
     19  CE2       74.2640   -5.9970   42.1830 C.ar   83  TRP83       0.0810
     20  CE3       74.3680   -3.8300   41.1370 C.ar   83  TRP83       0.0012
     21  CZ2       72.9010   -5.8500   42.4550 C.ar   83  TRP83       0.0191
     22  CZ3       73.0250   -3.6780   41.4090 C.ar   83  TRP83       0.0001
     23  CH2       72.3040   -4.6810   42.0660 C.ar   83  TRP83       0.0015
     24  N         75.4070   -1.6030   49.0070 N.3    95  VAL95      -0.1245
     25  CA        74.2520   -0.7320   48.9190 C.3    95  VAL95       0.1561
     26  C         74.7010    0.5770   49.5610 C.2    95  VAL95       0.2260
     27  O         75.0010    0.6410   50.7630 O.2    95  VAL95      -0.2867
     28  CB        73.0340   -1.3300   49.6480 C.3    95  VAL95       0.0252
     29  CG1       71.8230   -0.3950   49.5620 C.3    95  VAL95       0.0019
     30  CG2       72.6810   -2.7110   49.0540 C.3    95  VAL95       0.0019
     31  N         71.5450   -0.2220   40.8020 N.3   113  GLN113     -0.1245
     32  CA        70.1070   -0.3940   40.9230 C.3   113  GLN113      0.1566
     33  C         69.6160    0.5220   42.0220 C.2   113  GLN113      0.2260
     34  O         70.1720    0.5230   43.1250 O.2   113  GLN113     -0.2867
     35  CB        69.7480   -1.8330   41.2750 C.3   113  GLN113      0.0367
     36  CG        68.2420   -2.0590   41.4420 C.3   113  GLN113      0.0905
     37  CD        67.8590   -3.5150   41.2690 C.2   113  GLN113      0.2608
     38  OE1       68.5570   -4.2520   40.5750 O.2   113  GLN113     -0.2717
     39  NE2       66.7380   -3.9270   41.8640 N.am  113  GLN113     -0.0878
     40  N         67.3390    1.7660   44.9410 N.3   115  GLN115     -0.1245
     41  CA        66.5240    1.1490   45.9960 C.3   115  GLN115      0.1566
     42  C         65.4650    2.0690   46.6050 C.2   115  GLN115      0.2260
     43  O         64.2840    1.7570   46.5670 O.2   115  GLN115     -0.2867
     44  CB        67.4270    0.5920   47.1110 C.3   115  GLN115      0.0367
     45  CG        66.6790    0.0480   48.3590 C.3   115  GLN115      0.0905
     46  CD        67.6200   -0.1840   49.5590 C.2   115  GLN115      0.2608
     47  OE1       68.5340   -1.0090   49.4870 O.2   115  GLN115     -0.2717
     48  NE2       67.3960    0.5470   50.6510 N.am  115  GLN115     -0.0878
     49  N         76.1550  -10.2790   41.3980 N.3   169  ARG169     -0.1231
     50  CA        75.9560  -11.2960   42.4270 C.3   169  ARG169      0.1694
     51  C         74.6700  -11.0370   43.2030 C.2   169  ARG169      0.2592
     52  O         74.2240   -9.8950   43.3150 O.2   169  ARG169     -0.2718
     53  CB        77.1740  -11.4400   43.3410 C.3   169  ARG169      0.0321
     54  CG        77.5590  -10.1870   44.0830 C.3   169  ARG169      0.0489
     55  CD        78.8140  -10.3590   44.9030 C.3   169  ARG169      0.2205
     56  NE        78.8200  -11.6190   45.6430 N.pl3 169  ARG169     -0.0865
     57  CZ        79.8740  -12.4180   45.7340 C.cat 169  ARG169      0.5346
     58  NH1       81.0050  -12.0920   45.1180 N.pl3 169  ARG169      0.1354
     59  NH2       79.8040  -13.5420   46.4430 N.pl3 169  ARG169      0.1354
     60  N         74.0660  -12.1040   43.7140 N.am  170  THR170     -0.1953
     61  CA        72.7530  -11.9940   44.3310 C.3   170  THR170      0.1897
     62  C         72.7350  -12.5250   45.7540 C.2   170  THR170      0.2313
     63  O         71.7160  -13.0260   46.2270 O.2   170  THR170     -0.2863
     64  CB        71.7460  -12.7580   43.4810 C.3   170  THR170      0.1794
     65  OG1       72.3690  -13.9450   42.9680 O.3   170  THR170     -0.2208
     66  CG2       71.4510  -11.9870   42.2240 C.3   170  THR170      0.0378
     67  N         73.6160  -10.6360   48.4960 N.3   172  THR172     -0.1203
     68  CA        73.7960   -9.4660   49.3350 C.3   172  THR172      0.1994
     69  C         73.1880   -9.7040   50.7090 C.2   172  THR172      0.2618
     70  O         72.1050  -10.2480   50.8160 O.2   172  THR172     -0.2717
     71  CB        73.0890   -8.2590   48.6980 C.3   172  THR172      0.1784
     72  OG1       73.5030   -8.1300   47.3350 O.3   172  THR172     -0.2211
     73  CG2       73.5410   -6.9570   49.3610 C.3   172  THR172      0.0376
     74  N         73.9030   -9.2900   51.7470 N.am  173  VAL173     -0.1965
     75  CA        73.4340   -9.3580   53.1260 C.3   173  VAL173      0.1727
     76  C         73.8980   -8.0900   53.8250 C.2   173  VAL173      0.2616
     77  O         75.0570   -7.7140   53.7140 O.2   173  VAL173     -0.2715
     78  CB        74.0630  -10.5140   53.9000 C.3   173  VAL173      0.0290
     79  CG1       73.4870  -10.5600   55.3110 C.3   173  VAL173      0.0023
     80  CG2       73.8660  -11.8510   53.1750 C.3   173  VAL173      0.0023
     81  N         73.0130   -7.4390   54.5660 N.am  174  ASN174     -0.1958
     82  CA        73.3790   -6.1960   55.2360 C.3   174  ASN174      0.1819
     83  C         74.0820   -5.2390   54.2960 C.2   174  ASN174      0.2621
     84  O         75.0540   -4.5980   54.6680 O.2   174  ASN174     -0.2715
     85  CB        74.2480   -6.4550   56.4720 C.3   174  ASN174      0.1195
     86  CG        73.5310   -7.2880   57.5180 C.2   174  ASN174      0.2630
     87  OD1       72.3090   -7.2650   57.5860 O.2   174  ASN174     -0.2716
     88  ND2       74.2910   -8.0410   58.3190 N.am  174  ASN174     -0.0877
     89  N         73.5910   -5.1540   53.0660 N.am  175  GLY175     -0.1954
     90  CA        74.0950   -4.1840   52.1060 C.3   175  GLY175      0.1869
     91  C         75.4530   -4.4350   51.4750 C.2   175  GLY175      0.2309
     92  O         76.0300   -3.5430   50.8800 O.2   175  GLY175     -0.2863
@<TRIPOS>BOND
     1    13    12    2
     2    38    37    2
     3    14    15    1
     4    14    11    1
     5    31    32    1
     6    12    11    1
     7    32    35    1
     8    32    33    1
     9    20    22   ar
    10    20    17   ar
    11    37    36    1
    12    37    39   am
    13    35    36    1
    14    49    50    1
    15    22    23   ar
    16    15    17   ar
    17    15    16   ar
    18    17    19   ar
    19    11    10    1
    20    16    18   ar
    21    33    34    2
    22    23    21   ar
    23    19    21   ar
    24    19    18   ar
    25    66    64    1
    26    50    51    1
    27    50    53    1
    28     4     3    2
    29    65    64    1
    30    51    52    2
    31    51    60   am
    32    53    54    1
    33    64    61    1
    34    60    61    1
    35     3     2    1
    36    54    55    1
    37    61    62    1
    38    55    56    1
    39    40    41    1
    40     5     6    1
    41     5     2    1
    42     6     7    1
    43     2     1    1
    44    58    57    1
    45    56    57    2
    46     7     9   am
    47     7     8    2
    48    57    59    1
    49    62    63    2
    50    41    42    1
    51    41    44    1
    52    43    42    2
    53    44    45    1
    54    72    71    1
    55    45    46    1
    56    67    68    1
    57    71    68    1
    58    71    73    1
    59    25    24    1
    60    25    26    1
    61    25    28    1
    62    30    28    1
    63    68    69    1
    64    47    46    2
    65    46    48   am
    66    26    27    2
    67    29    28    1
    68    69    70    2
    69    69    74   am
    70    92    91    2
    71    91    90    1
    72    74    75    1
    73    90    89    1
    74    89    83   am
    75    75    76    1
    76    75    78    1
    77    80    78    1
    78    77    76    2
    79    76    81   am
    80    78    79    1
    81    83    84    2
    82    83    82    1
    83    81    82    1
    84    82    85    1
    85    85    86    1
    86    86    87    2
    87    86    88   am
