@<TRIPOS>MOLECULE
tmp/1gqhB00.pdb
 133 128 0 0 0
SMALL
GASTEIGER

@<TRIPOS>ATOM
      1  N         79.1280   29.2740   10.0240 N.3    33  TYR33      -0.1241
      2  CA        79.7340   27.9710   10.2390 C.3    33  TYR33       0.1605
      3  C         78.7100   26.8480   10.1790 C.2    33  TYR33       0.2264
      4  O         77.6200   26.9700   10.7460 O.2    33  TYR33      -0.2867
      5  CB        80.4270   27.9370   11.6070 C.3    33  TYR33       0.0534
      6  CG        81.6520   28.8250   11.6960 C.ar   33  TYR33      -0.0201
      7  CD1       81.5350   30.1820   11.9310 C.ar   33  TYR33      -0.0009
      8  CD2       82.9230   28.3030   11.5340 C.ar   33  TYR33      -0.0009
      9  CE1       82.6630   30.9990   12.0060 C.ar   33  TYR33       0.0417
     10  CE2       84.0610   29.1170   11.6150 C.ar   33  TYR33       0.0417
     11  CZ        83.9140   30.4610   11.8480 C.ar   33  TYR33       0.1957
     12  OH        85.0220   31.2830   11.9310 O.3    33  TYR33      -0.2866
     13  N         83.9620   20.9290    8.8250 N.3    49  MET49      -0.1245
     14  CA        83.0530   22.0410    8.8250 C.3    49  MET49       0.1570
     15  C         83.1850   22.9710    7.6250 C.2    49  MET49       0.2261
     16  O         84.2290   23.0620    6.9710 O.2    49  MET49      -0.2867
     17  CB        83.1750   22.8190   10.1430 C.3    49  MET49       0.0387
     18  CG        84.5100   23.4850   10.3570 C.3    49  MET49       0.0595
     19  SD        84.5050   24.4260   11.9160 S.3    49  MET49      -0.1393
     20  CE        85.5670   25.7500   11.4560 C.3    49  MET49       0.0692
     21  N         82.8180   26.8930    6.3570 N.3    51  THR51      -0.1218
     22  CA        82.7090   28.2890    6.7370 C.3    51  THR51       0.1862
     23  C         82.4510   29.1170    5.4770 C.2    51  THR51       0.2287
     24  O         83.3090   29.1670    4.5980 O.2    51  THR51      -0.2866
     25  CB        84.0220   28.7460    7.4150 C.3    51  THR51       0.1770
     26  OG1       84.1780   28.0620    8.6570 O.3    51  THR51      -0.2211
     27  CG2       83.9480   30.2040    7.8450 C.3    51  THR51       0.0375
     28  N         90.0190   36.0550   12.2330 N.3    61  VAL61      -0.1245
     29  CA        90.2850   35.5010   13.5560 C.3    61  VAL61       0.1561
     30  C         91.6050   36.0860   14.0670 C.2    61  VAL61       0.2260
     31  O         92.4990   36.4150   13.2840 O.2    61  VAL61      -0.2867
     32  CB        90.3530   33.9680   13.5050 C.3    61  VAL61       0.0252
     33  CG1       91.6480   33.5160   12.8170 C.3    61  VAL61       0.0019
     34  CG2       90.2210   33.3610   14.9030 C.3    61  VAL61       0.0019
     35  N         96.4110   32.8330   16.6540 N.3    64  HIS64      -0.1241
     36  CA        96.3410   31.9290   17.7780 C.3    64  HIS64       0.1621
     37  C         97.0310   30.6340   17.4540 C.2    64  HIS64       0.2264
     38  O         97.4110   30.3920   16.3110 O.2    64  HIS64      -0.2867
     39  CB        94.8720   31.6230   18.1190 C.3    64  HIS64       0.0745
     40  CG        94.1080   30.9480   17.0160 C.ar   64  HIS64       0.0817
     41  ND1       93.4420   31.6510   16.0350 N.ar   64  HIS64      -0.2268
     42  CD2       93.8680   29.6390   16.7630 C.ar   64  HIS64       0.1154
     43  CE1       92.8370   30.8040   15.2180 C.ar   64  HIS64       0.1986
     44  NE2       93.0800   29.5750   15.6380 N.ar   64  HIS64      -0.2212
     45  N         96.8490   26.1970   18.3730 N.3    66  HIS66      -0.1241
     46  CA        96.1700   25.0440   18.9540 C.3    66  HIS66       0.1621
     47  C         97.2980   24.1090   19.3760 C.2    66  HIS66       0.2264
     48  O         98.1530   23.7870   18.5720 O.2    66  HIS66      -0.2867
     49  CB        95.2670   24.3350   17.9440 C.3    66  HIS66       0.0745
     50  CG        94.3010   25.2490   17.2550 C.ar   66  HIS66       0.0817
     51  ND1       93.2750   25.8960   17.9170 N.ar   66  HIS66      -0.2268
     52  CD2       94.2110   25.6290   15.9580 C.ar   66  HIS66       0.1154
     53  CE1       92.5960   26.6300   17.0540 C.ar   66  HIS66       0.1986
     54  NE2       93.1520   26.4970   15.8610 N.ar   66  HIS66      -0.2212
     55  N         94.9470   21.5460   12.3990 N.3    71  GLU71      -0.1245
     56  CA        93.9840   22.2090   11.5240 C.3    71  GLU71       0.1567
     57  C         94.3200   22.1180   10.0310 C.2    71  GLU71       0.2260
     58  O         95.4850   22.1590    9.6250 O.2    71  GLU71      -0.2867
     59  CB        93.7500   23.6560   11.9500 C.3    71  GLU71       0.0388
     60  CG        92.3030   24.0350   11.6990 C.3    71  GLU71       0.1160
     61  CD        91.8210   25.1980   12.5160 C.2    71  GLU71       0.3649
     62  OE1       92.6110   25.8270   13.2610 O.co2  71  GLU71      -0.2457
     63  OE2       90.6180   25.4910   12.3830 O.co2  71  GLU71      -0.2457
     64  N         92.9950   23.6340    6.1980 N.3    73  PHE73      -0.1241
     65  CA        92.1970   24.5900    5.4530 C.3    73  PHE73       0.1605
     66  C         92.1160   24.2040    3.9820 C.2    73  PHE73       0.2264
     67  O         93.1240   24.0610    3.2870 O.2    73  PHE73      -0.2867
     68  CB        92.7960   25.9800    5.5890 C.3    73  PHE73       0.0534
     69  CG        92.7630   26.5060    6.9890 C.ar   73  PHE73      -0.0203
     70  CD1       93.7450   26.1460    7.9000 C.ar   73  PHE73      -0.0042
     71  CD2       91.7390   27.3300    7.4030 C.ar   73  PHE73      -0.0042
     72  CE1       93.7180   26.6130    9.1820 C.ar   73  PHE73      -0.0003
     73  CE2       91.7070   27.8090    8.7000 C.ar   73  PHE73      -0.0003
     74  CZ        92.7000   27.4440    9.5950 C.ar   73  PHE73      -0.0000
     75  N         98.6770   30.9930   13.4750 N.3   110  HIS110     -0.1241
     76  CA        97.9600   31.2150   12.2160 C.3   110  HIS110      0.1621
     77  C         96.7530   32.1400   12.3150 C.2   110  HIS110      0.2264
     78  O         96.1860   32.3510   13.3890 O.2   110  HIS110     -0.2867
     79  CB        97.4990   29.8810   11.6210 C.3   110  HIS110      0.0745
     80  CG        96.5850   29.1030   12.5160 C.ar  110  HIS110      0.0817
     81  ND1       97.0210   28.4970   13.6750 N.ar  110  HIS110     -0.2268
     82  CD2       95.2530   28.8500   12.4360 C.ar  110  HIS110      0.1154
     83  CE1       96.0000   27.8960   14.2620 C.ar  110  HIS110      0.1986
     84  NE2       94.9180   28.0920   13.5290 N.ar  110  HIS110     -0.2212
     85  N         93.6120   33.9590    9.2370 N.3   112  PHE112     -0.1241
     86  CA        93.1720   33.9820    7.8490 C.3   112  PHE112      0.1605
     87  C         92.4120   35.2630    7.5620 C.2   112  PHE112      0.2264
     88  O         92.0640   35.9810    8.4910 O.2   112  PHE112     -0.2867
     89  CB        92.2860   32.7640    7.5220 C.3   112  PHE112      0.0534
     90  CG        90.9650   32.7490    8.2490 C.ar  112  PHE112     -0.0203
     91  CD1       90.8780   32.2870    9.5580 C.ar  112  PHE112     -0.0042
     92  CD2       89.8030   33.2050    7.6300 C.ar  112  PHE112     -0.0042
     93  CE1       89.6680   32.2650   10.2210 C.ar  112  PHE112     -0.0003
     94  CE2       88.5770   33.1750    8.2980 C.ar  112  PHE112     -0.0003
     95  CZ        88.5180   32.7000    9.5900 C.ar  112  PHE112     -0.0000
     96  N         85.4370   27.8200    2.9400 N.3   121  MET121     -0.1245
     97  CA        86.5760   27.0800    3.4510 C.3   121  MET121      0.1570
     98  C         86.0400   25.8180    4.0710 C.2   121  MET121      0.2261
     99  O         85.1000   25.8640    4.8930 O.2   121  MET121     -0.2867
    100  CB        87.3140   27.8620    4.5600 C.3   121  MET121      0.0387
    101  CG        87.4450   29.3630    4.3490 C.3   121  MET121      0.0595
    102  SD        88.0790   30.2000    5.8860 S.3   121  MET121     -0.1393
    103  CE        88.7770   28.8740    6.7560 C.3   121  MET121      0.0692
    104  N         86.4220   19.9200   18.3360 N.3   130  PHE130     -0.1241
    105  CA        86.8930   21.3000   18.3510 C.3   130  PHE130      0.1605
    106  C         85.7500   22.3120   18.1290 C.2   130  PHE130      0.2264
    107  O         85.8570   23.4590   18.5350 O.2   130  PHE130     -0.2867
    108  CB        88.0270   21.5160   17.3220 C.3   130  PHE130      0.0534
    109  CG        88.5980   22.9100   17.3390 C.ar  130  PHE130     -0.0203
    110  CD1       89.3780   23.3360   18.3920 C.ar  130  PHE130     -0.0042
    111  CD2       88.3330   23.7960   16.3080 C.ar  130  PHE130     -0.0042
    112  CE1       89.8930   24.6360   18.4230 C.ar  130  PHE130     -0.0003
    113  CE2       88.8380   25.0850   16.3270 C.ar  130  PHE130     -0.0003
    114  CZ        89.6160   25.5080   17.3970 C.ar  130  PHE130     -0.0000
    115  N         84.1550   25.2600   20.4440 N.3   133  LEU133     -0.1231
    116  CA        84.6050   26.6490   20.4100 C.3   133  LEU133      0.1693
    117  C         83.5850   27.5710   19.7390 C.2   133  LEU133      0.2592
    118  O         83.2450   28.6480   20.2540 O.2   133  LEU133     -0.2718
    119  CB        85.9170   26.7470   19.6290 C.3   133  LEU133      0.0284
    120  CG        86.2990   28.1810   19.2700 C.3   133  LEU133      0.0019
    121  CD1       86.4070   29.0250   20.5280 C.3   133  LEU133      0.0001
    122  CD2       87.5960   28.2130   18.5100 C.3   133  LEU133      0.0001
    123  N         83.0970   27.1280   18.5860 N.am  134  PHE134     -0.1976
    124  CA        82.1650   27.9060   17.7810 C.3   134  PHE134      0.1639
    125  C         80.7570   27.9590   18.3600 C.2   134  PHE134      0.2290
    126  O         80.0190   28.9210   18.1240 O.2   134  PHE134     -0.2864
    127  CB        82.1970   27.4120   16.3270 C.3   134  PHE134      0.0560
    128  CG        83.5530   27.5740   15.6930 C.ar  134  PHE134     -0.0200
    129  CD1       84.0590   28.8440   15.4510 C.ar  134  PHE134     -0.0042
    130  CD2       84.3340   26.4720   15.3890 C.ar  134  PHE134     -0.0042
    131  CE1       85.3200   29.0210   14.8900 C.ar  134  PHE134     -0.0003
    132  CE2       85.5790   26.6290   14.8380 C.ar  134  PHE134     -0.0003
    133  CZ        86.0860   27.9130   14.5920 C.ar  134  PHE134     -0.0000
@<TRIPOS>BOND
     1    96    97    1
     2    67    66    2
     3    97    98    1
     4    97   100    1
     5    66    65    1
     6    98    99    2
     7   101   100    1
     8   101   102    1
     9    24    23    2
    10    65    68    1
    11    65    64    1
    12    23    22    1
    13    68    69    1
    14   102   103    1
    15    21    22    1
    16    22    25    1
    17    16    15    2
    18    69    71   ar
    19    69    70   ar
    20    71    73   ar
    21    25    27    1
    22    25    26    1
    23    89    86    1
    24    89    90    1
    25    87    86    1
    26    87    88    2
    27    15    14    1
    28    92    90   ar
    29    92    94   ar
    30    86    85    1
    31    70    72   ar
    32    90    91   ar
    33    94    95   ar
    34    73    74   ar
    35    13    14    1
    36    14    17    1
    37    72    74   ar
    38    91    93   ar
    39    95    93   ar
    40    58    57    2
    41     1     2    1
    42    57    56    1
    43    17    18    1
    44     3     2    1
    45     3     4    2
    46     2     5    1
    47    18    19    1
    48    20    19    1
    49    56    59    1
    50    56    55    1
    51     8    10   ar
    52     8     6   ar
    53     5     6    1
    54    10    11   ar
    55    79    76    1
    56    79    80    1
    57     6     7   ar
    58    60    59    1
    59    60    61    1
    60    11    12    1
    61    11     9   ar
    62     7     9   ar
    63    76    77    1
    64    76    75    1
    65    28    29    1
    66    77    78    2
    67    63    61   ar
    68    82    80   ar
    69    82    84   ar
    70    80    81   ar
    71    61    62   ar
    72    33    32    1
    73    31    30    2
    74    32    29    1
    75    32    34    1
    76    84    83   ar
    77    29    30    1
    78    81    83   ar
    79   133   132   ar
    80   133   131   ar
    81   132   130   ar
    82   131   129   ar
    83    43    44   ar
    84    43    41   ar
    85   130   128   ar
    86   129   128   ar
    87    44    42   ar
    88   128   127    1
    89    54    52   ar
    90    54    53   ar
    91    52    50   ar
    92    41    40   ar
    93   111   113   ar
    94   111   109   ar
    95    38    37    2
    96   127   124    1
    97   113   114   ar
    98    35    36    1
    99    42    40   ar
   100    40    39    1
   101    53    51   ar
   102    50    51   ar
   103    50    49    1
   104   108   109    1
   105   108   105    1
   106   109   110   ar
   107   114   112   ar
   108    37    36    1
   109    36    39    1
   110   124   125    1
   111   124   123    1
   112    49    46    1
   113   126   125    2
   114   106   105    1
   115   106   107    2
   116   104   105    1
   117    45    46    1
   118   110   112   ar
   119   122   120    1
   120    48    47    2
   121   123   117   am
   122    46    47    1
   123   120   119    1
   124   120   121    1
   125   119   116    1
   126   117   118    2
   127   117   116    1
   128   116   115    1
