@<TRIPOS>MOLECULE
tmp/1gqjB00.pdb
 126 126 0 0 0
SMALL
GASTEIGER

@<TRIPOS>ATOM
      1  N         14.7640   -4.5950   28.5730 N.3   164  GLU164     -0.1231
      2  CA        14.5300   -5.7080   29.5250 C.3   164  GLU164      0.1699
      3  C         13.8630   -5.1460   30.7990 C.2   164  GLU164      0.2592
      4  O         14.4120   -4.2480   31.4590 O.2   164  GLU164     -0.2718
      5  CB        15.8390   -6.4360   29.8140 C.3   164  GLU164      0.0402
      6  CG        15.7560   -7.5560   30.8550 C.3   164  GLU164      0.1161
      7  CD        16.9590   -8.4750   30.8760 C.2   164  GLU164      0.3649
      8  OE1       17.8340   -8.3900   29.9800 O.co2 164  GLU164     -0.2457
      9  OE2       17.0540   -9.2510   31.8400 O.co2 164  GLU164     -0.2457
     10  N         12.6700   -5.6520   31.1170 N.am  165  ARG165     -0.1980
     11  CA        11.8120   -5.0780   32.1950 C.3   165  ARG165      0.1597
     12  C         11.4620   -3.6350   31.7990 C.2   165  ARG165      0.2287
     13  O         11.6280   -2.6750   32.5700 O.2   165  ARG165     -0.2864
     14  CB        12.3970   -5.2290   33.6010 C.3   165  ARG165      0.0334
     15  CG        12.9760   -6.6020   33.8630 C.3   165  ARG165      0.0492
     16  CD        11.9770   -7.7230   33.6140 C.3   165  ARG165      0.2205
     17  NE        12.5830   -8.9870   33.9590 N.pl3 165  ARG165     -0.0865
     18  CZ        11.9600  -10.1380   34.0760 C.cat 165  ARG165      0.5346
     19  NH1       10.6410  -10.2540   33.8680 N.pl3 165  ARG165      0.1354
     20  NH2       12.6690  -11.1850   34.4120 N.pl3 165  ARG165      0.1354
     21  N         23.4390  -14.8810   37.2260 N.3   288  GLU288     -0.1245
     22  CA        22.4200  -15.2440   36.2250 C.3   288  GLU288      0.1567
     23  C         22.9840  -15.6220   34.8630 C.2   288  GLU288      0.2260
     24  O         22.4150  -15.2960   33.8210 O.2   288  GLU288     -0.2867
     25  CB        21.3730  -14.1260   36.1170 C.3   288  GLU288      0.0388
     26  CG        20.8670  -13.7620   37.5170 C.3   288  GLU288      0.1160
     27  CD        19.6670  -12.8430   37.5200 C.2   288  GLU288      0.3649
     28  OE1       19.5560  -12.0480   36.5990 O.co2 288  GLU288     -0.2457
     29  OE2       18.8360  -12.9540   38.4640 O.co2 288  GLU288     -0.2457
     30  N         15.3190   -9.4620   45.2620 N.3   361  ASP361     -0.1239
     31  CA        15.2390   -8.8380   43.9450 C.3   361  ASP361      0.1674
     32  C         14.0440   -7.9150   43.8660 C.2   361  ASP361      0.2266
     33  O         13.0050   -8.2750   43.3080 O.2   361  ASP361     -0.2867
     34  CB        15.1110   -9.9180   42.8630 C.3   361  ASP361      0.1410
     35  CG        15.1030   -9.3460   41.4560 C.2   361  ASP361      0.3668
     36  OD1       15.5280   -8.1810   41.2540 O.co2 361  ASP361     -0.2456
     37  OD2       14.6800  -10.0320   40.4860 O.co2 361  ASP361     -0.2456
     38  N          8.7410   -3.8320   37.4230 N.3   389  GLU389     -0.1231
     39  CA         8.8940   -5.2540   37.1810 C.3   389  GLU389      0.1699
     40  C          7.9790   -6.0540   38.0930 C.2   389  GLU389      0.2592
     41  O          7.3560   -7.0430   37.6620 O.2   389  GLU389     -0.2718
     42  CB        10.3350   -5.6950   37.3540 C.3   389  GLU389      0.0402
     43  CG        10.5440   -7.2020   37.2940 C.3   389  GLU389      0.1161
     44  CD        11.9840   -7.6190   37.3000 C.2   389  GLU389      0.3649
     45  OE1       12.8750   -6.7840   37.4760 O.co2 389  GLU389     -0.2457
     46  OE2       12.2140   -8.8360   37.1390 O.co2 389  GLU389     -0.2457
     47  N          7.8800   -5.5890   39.3290 N.am  390  TYR390     -0.1976
     48  CA         7.1770   -6.3060   40.3800 C.3   390  TYR390      0.1639
     49  C          5.9670   -5.5590   40.8960 C.2   390  TYR390      0.2290
     50  O          5.2740   -6.0520   41.7760 O.2   390  TYR390     -0.2864
     51  CB         8.1830   -6.6300   41.4760 C.3   390  TYR390      0.0560
     52  CG         9.2470   -7.6370   41.0650 C.ar  390  TYR390     -0.0198
     53  CD1        8.9090   -8.9200   40.6830 C.ar  390  TYR390     -0.0009
     54  CD2       10.6050   -7.3130   41.0750 C.ar  390  TYR390     -0.0009
     55  CE1        9.8640   -9.8500   40.3040 C.ar  390  TYR390      0.0417
     56  CE2       11.5530   -8.2460   40.7210 C.ar  390  TYR390      0.0417
     57  CZ        11.1810   -9.5260   40.3310 C.ar  390  TYR390      0.1957
     58  OH        12.1460  -10.4840   39.9950 O.3   390  TYR390     -0.2866
     59  N          6.8070  -16.8740   36.7570 N.3   521  GLN521     -0.1231
     60  CA         8.2140  -16.8670   36.3030 C.3   521  GLN521      0.1698
     61  C          8.2830  -17.2030   34.8380 C.2   521  GLN521      0.2592
     62  O          7.5120  -18.0220   34.3790 O.2   521  GLN521     -0.2718
     63  CB         9.0820  -17.8410   37.1020 C.3   521  GLN521      0.0381
     64  CG         9.1140  -17.4620   38.5680 C.3   521  GLN521      0.0905
     65  CD         9.8710  -16.1750   38.8720 C.2   521  GLN521      0.2608
     66  OE1        9.6030  -15.5020   39.9030 O.2   521  GLN521     -0.2717
     67  NE2       10.8340  -15.8270   38.0010 N.am  521  GLN521     -0.0878
     68  N          9.1440  -16.5490   34.0670 N.am  522  GLY522     -0.1957
     69  CA         9.8390  -15.4690   34.7540 C.3   522  GLY522      0.1869
     70  C          9.5070  -14.1060   34.1430 C.2   522  GLY522      0.2309
     71  O         10.3700  -13.2720   33.9030 O.2   522  GLY522     -0.2863
     72  N          6.7560  -12.1020   35.4430 N.3   524  HIS524     -0.1241
     73  CA         6.6060  -11.3050   36.6550 C.3   524  HIS524      0.1621
     74  C          5.3380  -10.4490   36.6660 C.2   524  HIS524      0.2264
     75  O          5.1310   -9.6120   37.5360 O.2   524  HIS524     -0.2867
     76  CB         7.8330  -10.4030   36.7770 C.3   524  HIS524      0.0745
     77  CG         9.0450  -11.2420   37.0810 C.ar  524  HIS524      0.0817
     78  ND1        8.9750  -12.5460   37.4500 N.ar  524  HIS524     -0.2268
     79  CD2       10.3880  -10.8580   37.0640 C.ar  524  HIS524      0.1154
     80  CE1       10.2480  -12.9360   37.6490 C.ar  524  HIS524      0.1986
     81  NE2       11.1160  -11.9450   37.4260 N.ar  524  HIS524     -0.2212
     82  N         14.4430  -19.7280   42.2870 N.3   539  TRP539     -0.1241
     83  CA        13.7100  -18.9050   41.3350 C.3   539  TRP539      0.1605
     84  C         12.2110  -19.1860   41.4010 C.2   539  TRP539      0.2264
     85  O         11.4090  -18.6080   40.6770 O.2   539  TRP539     -0.2867
     86  CB        14.2310  -19.2150   39.9310 C.3   539  TRP539      0.0550
     87  CG        15.3220  -18.2830   39.5660 C.ar  539  TRP539      0.0003
     88  CD1       16.1520  -17.5630   40.4540 C.ar  539  TRP539      0.0946
     89  CD2       15.8230  -18.0240   38.2320 C.ar  539  TRP539      0.0152
     90  NE1       17.1390  -16.8860   39.8100 N.ar  539  TRP539     -0.2442
     91  CE2       16.9410  -17.1630   38.3650 C.ar  539  TRP539      0.0810
     92  CE3       15.4270  -18.4360   36.9630 C.ar  539  TRP539      0.0012
     93  CZ2       17.6350  -16.7500   37.2390 C.ar  539  TRP539      0.0191
     94  CZ3       16.1200  -18.0230   35.8370 C.ar  539  TRP539      0.0001
     95  CH2       17.2300  -17.1700   35.9780 C.ar  539  TRP539      0.0015
     96  N          9.6270   -7.4350   25.7340 N.3   698  TRP698     -0.1227
     97  CA        10.8260   -8.2220   25.9950 C.3   698  TRP698      0.1737
     98  C         10.6190   -9.6670   26.4390 C.2   698  TRP698      0.2595
     99  O         11.2060  -10.5690   25.8460 O.2   698  TRP698     -0.2718
    100  CB        11.7240   -7.5270   27.0180 C.3   698  TRP698      0.0564
    101  CG        12.9300   -8.3400   27.3630 C.ar  698  TRP698      0.0003
    102  CD1       14.0600   -8.4910   26.6110 C.ar  698  TRP698      0.0946
    103  CD2       13.1150   -9.1470   28.5230 C.ar  698  TRP698      0.0152
    104  NE1       14.9400   -9.3420   27.2300 N.ar  698  TRP698     -0.2442
    105  CE2       14.4010   -9.7480   28.4160 C.ar  698  TRP698      0.0810
    106  CE3       12.3510   -9.3910   29.6680 C.ar  698  TRP698      0.0012
    107  CZ2       14.9120  -10.5910   29.3870 C.ar  698  TRP698      0.0191
    108  CZ3       12.8700  -10.2350   30.6480 C.ar  698  TRP698      0.0001
    109  CH2       14.1190  -10.8250   30.5040 C.ar  698  TRP698      0.0015
    110  N          9.8830   -9.8980   27.5250 N.am  699  HIS699     -0.1962
    111  CA         9.8460  -11.2660   28.0410 C.3   699  HIS699      0.1772
    112  C          9.1260  -12.2430   27.0870 C.2   699  HIS699      0.2462
    113  O          8.0440  -11.9010   26.6200 O.2   699  HIS699     -0.2730
    114  CB         9.2800  -11.3830   29.4720 C.3   699  HIS699      0.0785
    115  CG         9.6370  -12.6830   30.1270 C.ar  699  HIS699      0.0821
    116  ND1        8.8910  -13.8250   29.9520 N.ar  699  HIS699     -0.2267
    117  CD2       10.6870  -13.0440   30.8990 C.ar  699  HIS699      0.1154
    118  CE1        9.4690  -14.8340   30.5830 C.ar  699  HIS699      0.1986
    119  NE2       10.5720  -14.3890   31.1540 N.ar  699  HIS699     -0.2212
    120  N          9.7100  -13.4300   26.8330 N.am  700  PRO700     -0.2727
    121  CA         9.1030  -14.4590   25.9680 C.3   700  PRO700      0.1402
    122  C          7.6240  -14.8280   26.2580 C.2   700  PRO700      0.2269
    123  O          6.9280  -15.1800   25.3170 O.2   700  PRO700     -0.2865
    124  CB         9.9860  -15.6840   26.2090 C.3   700  PRO700      0.0296
    125  CG        11.3860  -15.0980   26.5250 C.3   700  PRO700      0.0237
    126  CD        11.0300  -13.8870   27.3370 C.3   700  PRO700      0.0939
@<TRIPOS>BOND
     1   123   122    2
     2    96    97    1
     3    99    98    2
     4   121   124    1
     5   121   122    1
     6   121   120    1
     7    97    98    1
     8    97   100    1
     9   124   125    1
    10    98   110   am
    11   125   126    1
    12   102   104   ar
    13   102   101   ar
    14   113   112    2
    15   120   112   am
    16   120   126    1
    17   100   101    1
    18   112   111    1
    19   104   105   ar
    20   101   103   ar
    21   110   111    1
    22   111   114    1
    23   105   103   ar
    24   105   107   ar
    25   103   106   ar
    26     1     2    1
    27   107   109   ar
    28   114   115    1
    29     2     5    1
    30     2     3    1
    31   106   108   ar
    32     5     6    1
    33   116   115   ar
    34   116   118   ar
    35     8     7   ar
    36   115   117   ar
    37   109   108   ar
    38   118   119   ar
    39     3    10   am
    40     3     4    2
    41     6     7    1
    42     7     9   ar
    43   117   119   ar
    44    10    11    1
    45    12    11    1
    46    12    13    2
    47    11    14    1
    48    14    15    1
    49    16    15    1
    50    16    17    1
    51    24    23    2
    52    19    18    1
    53    71    70    2
    54    17    18    2
    55    68    69    1
    56    68    61   am
    57    18    20    1
    58    70    69    1
    59    62    61    2
    60    61    60    1
    61    23    22    1
    62    72    73    1
    63    94    95   ar
    64    94    92   ar
    65    95    93   ar
    66    25    22    1
    67    25    26    1
    68    22    21    1
    69    60    59    1
    70    60    63    1
    71    28    27   ar
    72    73    74    1
    73    73    76    1
    74    74    75    2
    75    76    77    1
    76    92    89   ar
    77    79    77   ar
    78    79    81   ar
    79    77    78   ar
    80    63    64    1
    81    46    44   ar
    82    39    42    1
    83    39    38    1
    84    39    40    1
    85    93    91   ar
    86    43    44    1
    87    43    42    1
    88    44    45   ar
    89    81    80   ar
    90    78    80   ar
    91    26    27    1
    92    27    29   ar
    93    41    40    2
    94    67    65   am
    95    40    47   am
    96    89    91   ar
    97    89    87   ar
    98    91    90   ar
    99    64    65    1
   100    65    66    2
   101    47    48    1
   102    87    86    1
   103    87    88   ar
   104    90    88   ar
   105    86    83    1
   106    58    57    1
   107    55    57   ar
   108    55    53   ar
   109    57    56   ar
   110    48    49    1
   111    48    51    1
   112    37    35   ar
   113    85    84    2
   114    53    52   ar
   115    56    54   ar
   116    49    50    2
   117    52    54   ar
   118    52    51    1
   119    36    35   ar
   120    83    84    1
   121    83    82    1
   122    35    34    1
   123    34    31    1
   124    33    32    2
   125    32    31    1
   126    31    30    1
