@<TRIPOS>MOLECULE
tmp/1gqlA01.pdb
 160 157 0 0 0
SMALL
GASTEIGER

@<TRIPOS>ATOM
      1  N          6.9850   -7.4340   12.7770 N.3   164  GLU164     -0.1231
      2  CA         7.8340   -8.1540   11.8330 C.3   164  GLU164      0.1699
      3  C          7.9940   -7.2710   10.5780 C.2   164  GLU164      0.2592
      4  O          7.0140   -6.8780    9.9650 O.2   164  GLU164     -0.2718
      5  CB         7.2640   -9.5310   11.5240 C.3   164  GLU164      0.0402
      6  CG         8.0100  -10.3010   10.4410 C.3   164  GLU164      0.1161
      7  CD         7.7560  -11.8070   10.4620 C.2   164  GLU164      0.3649
      8  OE1        6.9590  -12.2800   11.3000 O.co2 164  GLU164     -0.2457
      9  OE2        8.3670  -12.5040    9.6240 O.co2 164  GLU164     -0.2457
     10  N          9.2340   -6.9150   10.2620 N.am  165  ARG165     -0.1980
     11  CA         9.5470   -5.9510    9.1790 C.3   165  ARG165      0.1597
     12  C          8.9100   -4.6040    9.5200 C.2   165  ARG165      0.2287
     13  O          8.2620   -3.9480    8.6990 O.2   165  ARG165     -0.2864
     14  CB         9.1400   -6.4640    7.8000 C.3   165  ARG165      0.0334
     15  CG         9.4700   -7.9170    7.5760 C.3   165  ARG165      0.0492
     16  CD        10.9030   -8.2650    7.8130 C.3   165  ARG165      0.2205
     17  NE        11.1620   -9.6520    7.5040 N.pl3 165  ARG165     -0.0865
     18  CZ        12.3700  -10.1990    7.4010 C.cat 165  ARG165      0.5346
     19  NH1       13.4680   -9.4750    7.5760 N.pl3 165  ARG165      0.1354
     20  NH2       12.4790  -11.4770    7.0700 N.pl3 165  ARG165      0.1354
     21  N          6.4520  -20.7820    4.1910 N.3   288  GLU288     -0.1245
     22  CA         7.4560  -20.4320    5.1940 C.3   288  GLU288      0.1567
     23  C          7.2310  -21.0660    6.5850 C.2   288  GLU288      0.2260
     24  O          7.5460  -20.4740    7.5960 O.2   288  GLU288     -0.2867
     25  CB         7.5950  -18.9060    5.2480 C.3   288  GLU288      0.0388
     26  CG         7.9290  -18.3220    3.8710 C.3   288  GLU288      0.1160
     27  CD         8.2140  -16.8310    3.8790 C.2   288  GLU288      0.3649
     28  OE1        7.7430  -16.1440    4.8000 O.co2 288  GLU288     -0.2457
     29  OE2        8.8550  -16.3690    2.9090 O.co2 288  GLU288     -0.2457
     30  N          1.1950  -15.9890   -1.6680 N.3   323  PHE323     -0.1241
     31  CA         2.6210  -16.0350   -1.3670 C.3   323  PHE323      0.1605
     32  C          3.0130  -17.4180   -0.8220 C.2   323  PHE323      0.2264
     33  O          3.1650  -17.6260    0.3670 O.2   323  PHE323     -0.2867
     34  CB         2.9700  -14.9120   -0.3790 C.3   323  PHE323      0.0534
     35  CG         4.4330  -14.7980   -0.0710 C.ar  323  PHE323     -0.0203
     36  CD1        5.3600  -14.4330   -1.0650 C.ar  323  PHE323     -0.0042
     37  CD2        4.8970  -14.9890    1.2030 C.ar  323  PHE323     -0.0042
     38  CE1        6.6850  -14.2830   -0.7680 C.ar  323  PHE323     -0.0003
     39  CE2        6.3020  -14.8510    1.4850 C.ar  323  PHE323     -0.0003
     40  CZ         7.1490  -14.4930    0.4960 C.ar  323  PHE323     -0.0000
     41  N          5.4390  -21.0000   -1.9790 N.3   325  TYR325     -0.1241
     42  CA         6.5400  -21.4780   -2.8260 C.3   325  TYR325      0.1605
     43  C          7.2480  -22.6140   -2.1060 C.2   325  TYR325      0.2264
     44  O          7.7230  -22.4340   -0.9810 O.2   325  TYR325     -0.2867
     45  CB         7.5110  -20.3350   -3.2200 C.3   325  TYR325      0.0534
     46  CG         8.1810  -19.6390   -2.0550 C.ar  325  TYR325     -0.0201
     47  CD1        9.5070  -19.8940   -1.7610 C.ar  325  TYR325     -0.0009
     48  CD2        7.5070  -18.7170   -1.2660 C.ar  325  TYR325     -0.0009
     49  CE1       10.1240  -19.3120   -0.6940 C.ar  325  TYR325      0.0417
     50  CE2        8.1330  -18.0950   -0.2010 C.ar  325  TYR325      0.0417
     51  CZ         9.4290  -18.4240    0.0980 C.ar  325  TYR325      0.1957
     52  OH        10.1120  -17.8150    1.1320 O.3   325  TYR325     -0.2866
     53  N         11.6980  -20.7510   -8.1900 N.3   332  ARG332     -0.1245
     54  CA        10.7720  -20.0490   -7.3000 C.3   332  ARG332      0.1563
     55  C          9.8610  -19.0650   -8.0420 C.2   332  ARG332      0.2260
     56  O          8.6840  -18.8790   -7.6760 O.2   332  ARG332     -0.2867
     57  CB        11.5030  -19.3170   -6.1520 C.3   332  ARG332      0.0307
     58  CG        10.5690  -18.5140   -5.2400 C.3   332  ARG332      0.0489
     59  CD        11.2340  -17.9480   -4.0720 C.3   332  ARG332      0.2205
     60  NE        10.3950  -17.0790   -3.2540 N.pl3 332  ARG332     -0.0865
     61  CZ        10.8600  -16.4080   -2.1910 C.cat 332  ARG332      0.5346
     62  NH1       12.1350  -16.5030   -1.8410 N.pl3 332  ARG332      0.1354
     63  NH2       10.0620  -15.6170   -1.4680 N.pl3 332  ARG332      0.1354
     64  N          9.3080  -11.5320   -3.9680 N.3   361  ASP361     -0.1239
     65  CA         9.0810  -11.0480   -2.6230 C.3   361  ASP361      0.1674
     66  C          9.4080   -9.5840   -2.4510 C.2   361  ASP361      0.2266
     67  O         10.4050   -9.2410   -1.8100 O.2   361  ASP361     -0.2867
     68  CB         9.9440  -11.8810   -1.6410 C.3   361  ASP361      0.1410
     69  CG         9.7370  -11.4810   -0.1940 C.2   361  ASP361      0.3668
     70  OD1        8.6860  -10.8420    0.1490 O.co2 361  ASP361     -0.2456
     71  OD2       10.6540  -11.6970    0.6410 O.co2 361  ASP361     -0.2456
     72  N         11.1840   -2.9920    3.9650 N.3   389  GLU389     -0.1231
     73  CA        11.9180   -4.2090    4.2320 C.3   389  GLU389      0.1699
     74  C         13.1330   -4.3110    3.3070 C.2   389  GLU389      0.2592
     75  O         14.2200   -4.7290    3.7200 O.2   389  GLU389     -0.2718
     76  CB        11.0210   -5.4480    4.0600 C.3   389  GLU389      0.0402
     77  CG        11.8520   -6.7200    4.1840 C.3   389  GLU389      0.1161
     78  CD        11.0630   -7.9800    4.1240 C.2   389  GLU389      0.3649
     79  OE1        9.8540   -7.9840    3.7560 O.co2 389  GLU389     -0.2457
     80  OE2       11.6820   -9.0330    4.3630 O.co2 389  GLU389     -0.2457
     81  N         12.9280   -3.9330    2.0640 N.am  390  TYR390     -0.1976
     82  CA        13.9440   -4.0780    1.0370 C.3   390  TYR390      0.1639
     83  C         14.4640   -2.7400    0.5060 C.2   390  TYR390      0.2290
     84  O         15.2720   -2.7030   -0.4190 O.2   390  TYR390     -0.2864
     85  CB        13.3530   -4.9750   -0.0720 C.3   390  TYR390      0.0560
     86  CG        13.1140   -6.3830    0.4000 C.ar  390  TYR390     -0.0198
     87  CD1       14.1830   -7.1950    0.7650 C.ar  390  TYR390     -0.0009
     88  CD2       11.8450   -6.9500    0.4100 C.ar  390  TYR390     -0.0009
     89  CE1       13.9960   -8.4760    1.2100 C.ar  390  TYR390      0.0417
     90  CE2       11.6640   -8.2670    0.8380 C.ar  390  TYR390      0.0417
     91  CZ        12.7570   -9.0210    1.2150 C.ar  390  TYR390      0.1957
     92  OH        12.6280  -10.3420    1.6290 O.3   390  TYR390     -0.2866
     93  N         17.2680  -10.0360   -4.9850 N.3   517  HIS517     -0.1241
     94  CA        17.4890  -10.9140   -3.8430 C.3   517  HIS517      0.1621
     95  C         18.9500  -11.0360   -3.4070 C.2   517  HIS517      0.2264
     96  O         19.4310  -12.1370   -3.1000 O.2   517  HIS517     -0.2867
     97  CB        16.8610  -12.2630   -4.1830 C.3   517  HIS517      0.0745
     98  CG        16.4860  -13.0880   -2.9950 C.ar  517  HIS517      0.0817
     99  ND1       17.4010  -13.8300   -2.3000 N.ar  517  HIS517     -0.2268
    100  CD2       15.2870  -13.3010   -2.3850 C.ar  517  HIS517      0.1154
    101  CE1       16.8010  -14.4670   -1.3210 C.ar  517  HIS517      0.1986
    102  NE2       15.5170  -14.1560   -1.3340 N.ar  517  HIS517     -0.2212
    103  N         20.7390  -12.2260    4.6810 N.3   521  GLN521     -0.1231
    104  CA        19.6560  -13.0610    5.1310 C.3   521  GLN521      0.1698
    105  C         19.7720  -13.2810    6.6120 C.2   521  GLN521      0.2592
    106  O         20.8740  -13.5450    7.0810 O.2   521  GLN521     -0.2718
    107  CB        19.6150  -14.3360    4.3410 C.3   521  GLN521      0.0381
    108  CG        19.3680  -14.1230    2.8360 C.3   521  GLN521      0.0905
    109  CD        18.0200  -13.4870    2.5220 C.2   521  GLN521      0.2608
    110  OE1       17.8530  -12.8080    1.4980 O.2   521  GLN521     -0.2717
    111  NE2       17.0750  -13.6820    3.4160 N.am  521  GLN521     -0.0878
    112  N         18.6970  -13.2780    7.3830 N.am  522  GLY522     -0.1957
    113  CA        17.3050  -13.1020    6.9980 C.3   522  GLY522      0.1869
    114  C         16.7810  -11.7060    7.3700 C.2   522  GLY522      0.2309
    115  O         15.5920  -11.3950    7.2010 O.2   522  GLY522     -0.2863
    116  N         17.6710   -8.7320    6.0080 N.3   524  HIS524     -0.1241
    117  CA        17.5180   -7.8810    4.8490 C.3   524  HIS524      0.1621
    118  C         17.9830   -6.4170    4.9250 C.2   524  HIS524      0.2264
    119  O         17.5720   -5.6040    4.0930 O.2   524  HIS524     -0.2867
    120  CB        16.0890   -7.9600    4.3160 C.3   524  HIS524      0.0745
    121  CG        15.5510   -9.3430    4.1850 C.ar  524  HIS524      0.0817
    122  ND1       16.2940  -10.4580    3.8390 N.ar  524  HIS524     -0.2268
    123  CD2       14.2890   -9.7800    4.3670 C.ar  524  HIS524      0.1154
    124  CE1       15.4820  -11.5010    3.7890 C.ar  524  HIS524      0.1986
    125  NE2       14.2660  -11.1160    4.1300 N.ar  524  HIS524     -0.2212
    126  N         16.3970  -19.1090   -0.8160 N.3   539  TRP539     -0.1241
    127  CA        16.5880  -18.0080    0.1220 C.3   539  TRP539      0.1605
    128  C         17.9820  -17.3920   -0.0200 C.2   539  TRP539      0.2264
    129  O         18.2650  -16.4020    0.6410 O.2   539  TRP539     -0.2867
    130  CB        16.3950  -18.4930    1.5700 C.3   539  TRP539      0.0550
    131  CG        14.9560  -18.5300    1.9940 C.ar  539  TRP539      0.0003
    132  CD1       13.8520  -18.4530    1.1840 C.ar  539  TRP539      0.0946
    133  CD2       14.4520  -18.6140    3.3410 C.ar  539  TRP539      0.0152
    134  NE1       12.7040  -18.4830    1.9440 N.ar  539  TRP539     -0.2442
    135  CE2       13.0400  -18.5900    3.2680 C.ar  539  TRP539      0.0810
    136  CE3       15.0530  -18.7090    4.6000 C.ar  539  TRP539      0.0012
    137  CZ2       12.2250  -18.6740    4.4020 C.ar  539  TRP539      0.0191
    138  CZ3       14.2570  -18.7840    5.7120 C.ar  539  TRP539      0.0001
    139  CH2       12.8550  -18.7630    5.6170 C.ar  539  TRP539      0.0015
    140  N         12.6480   -6.4470   15.8700 N.3   698  TRP698     -0.1241
    141  CA        12.3340   -7.8350   15.5250 C.3   698  TRP698      0.1605
    142  C         13.5360   -8.5710   14.9570 C.2   698  TRP698      0.2264
    143  O         14.3500   -7.9450   14.2850 O.2   698  TRP698     -0.2867
    144  CB        11.2220   -7.8450   14.4810 C.3   698  TRP698      0.0550
    145  CG        10.8040   -9.1800   14.0560 C.ar  698  TRP698      0.0003
    146  CD1        9.9220   -9.9920   14.6900 C.ar  698  TRP698      0.0946
    147  CD2       11.2490   -9.8870   12.8940 C.ar  698  TRP698      0.0152
    148  NE1        9.7780  -11.1640   13.9970 N.ar  698  TRP698     -0.2442
    149  CE2       10.5860  -11.1380   12.8980 C.ar  698  TRP698      0.0810
    150  CE3       12.1130   -9.5760   11.8230 C.ar  698  TRP698      0.0012
    151  CZ2       10.7660  -12.0820   11.8900 C.ar  698  TRP698      0.0191
    152  CZ3       12.2990  -10.5360   10.8180 C.ar  698  TRP698      0.0001
    153  CH2       11.6160  -11.7560   10.8580 C.ar  698  TRP698      0.0015
    154  N         14.8030  -12.3380   12.8360 N.3   700  PRO700     -0.2116
    155  CA        14.3900  -13.5940   12.2150 C.3   700  PRO700      0.1372
    156  C         14.7300  -14.7820   13.1220 C.2   700  PRO700      0.2244
    157  O         15.5940  -14.6520   13.9950 O.2   700  PRO700     -0.2868
    158  CB        15.2130  -13.6380   10.9110 C.3   700  PRO700      0.0268
    159  CG        16.0190  -12.4210   10.8070 C.3   700  PRO700      0.0207
    160  CD        15.9300  -11.7240   12.1040 C.3   700  PRO700      0.0892
@<TRIPOS>BOND
     1    53    54    1
     2    55    56    2
     3    55    54    1
     4    54    57    1
     5    57    58    1
     6    58    59    1
     7    93    94    1
     8    97    94    1
     9    97    98    1
    10    59    60    1
    11    64    65    1
    12    94    95    1
    13    95    96    2
    14    60    61    2
    15    45    42    1
    16    45    46    1
    17    98   100   ar
    18    98    99   ar
    19    42    43    1
    20    42    41    1
    21    65    66    1
    22    65    68    1
    23    66    67    2
    24   100   102   ar
    25    99   101   ar
    26    61    62    1
    27    61    63    1
    28    43    44    2
    29    46    47   ar
    30    46    48   ar
    31    47    49   ar
    32    30    31    1
    33    68    69    1
    34    31    32    1
    35    31    34    1
    36   102   101   ar
    37    48    50   ar
    38    36    38   ar
    39    36    35   ar
    40    32    33    2
    41   126   127    1
    42    38    40   ar
    43    49    51   ar
    44    84    83    2
    45    34    35    1
    46    50    51   ar
    47    69    70   ar
    48    69    71   ar
    49    85    86    1
    50    85    82    1
    51    35    37   ar
    52   128   127    1
    53   128   129    2
    54    51    52    1
    55   127   130    1
    56    86    88   ar
    57    86    87   ar
    58    88    90   ar
    59    40    39   ar
    60    83    82    1
    61    87    89   ar
    62    90    91   ar
    63    82    81    1
    64   132   134   ar
    65   132   131   ar
    66    37    39   ar
    67    89    91   ar
    68    91    92    1
    69   110   109    2
    70   130   131    1
    71   134   135   ar
    72   131   133   ar
    73    81    74   am
    74   109   108    1
    75   109   111   am
    76   108   107    1
    77    29    27   ar
    78   135   133   ar
    79   135   137   ar
    80    74    75    2
    81    74    73    1
    82   133   136   ar
    83    79    78   ar
    84   124   122   ar
    85   124   125   ar
    86   122   121   ar
    87    26    27    1
    88    26    25    1
    89    27    28   ar
    90    72    73    1
    91    76    77    1
    92    76    73    1
    93   119   118    2
    94    78    77    1
    95    78    80   ar
    96   125   123   ar
    97   121   120    1
    98   121   123   ar
    99    21    22    1
   100   120   117    1
   101   107   104    1
   102   137   139   ar
   103   136   138   ar
   104   103   104    1
   105   117   118    1
   106   117   116    1
   107   104   105    1
   108    22    25    1
   109    22    23    1
   110   139   138   ar
   111    23    24    2
   112   105   106    2
   113   105   112   am
   114   113   114    1
   115   113   112    1
   116    20    18    1
   117   115   114    2
   118    18    17    2
   119    18    19    1
   120    17    16    1
   121    15    14    1
   122    15    16    1
   123    14    11    1
   124    13    12    2
   125    11    12    1
   126    11    10    1
   127     9     7   ar
   128     4     3    2
   129    10     3   am
   130     6     7    1
   131     6     5    1
   132     7     8   ar
   133     3     2    1
   134   159   158    1
   135   159   160    1
   136   152   153   ar
   137   152   150   ar
   138   153   151   ar
   139   158   155    1
   140     5     2    1
   141   150   147   ar
   142     2     1    1
   143   151   149   ar
   144   160   154    1
   145   155   154    1
   146   155   156    1
   147   147   149   ar
   148   147   145   ar
   149   149   148   ar
   150   156   157    2
   151   148   146   ar
   152   145   144    1
   153   145   146   ar
   154   143   142    2
   155   144   141    1
   156   142   141    1
   157   141   140    1
