@<TRIPOS>MOLECULE
tmp/1gqlA00.pdb
 148 143 0 0 0
SMALL
GASTEIGER

@<TRIPOS>ATOM
      1  N          1.9820   -6.3580   10.1300 N.3   156  TRP156     -0.1241
      2  CA         2.5930   -7.6130   10.4760 C.3   156  TRP156      0.1605
      3  C          2.9750   -7.5630   11.9630 C.2   156  TRP156      0.2264
      4  O          4.1340   -7.7710   12.3450 O.2   156  TRP156     -0.2867
      5  CB         3.7530   -7.8790    9.5690 C.3   156  TRP156      0.0550
      6  CG         3.3850   -8.1850    8.1300 C.ar  156  TRP156      0.0003
      7  CD1        2.1530   -8.4010    7.6030 C.ar  156  TRP156      0.0946
      8  CD2        4.3070   -8.3180    7.0560 C.ar  156  TRP156      0.0152
      9  NE1        2.2550   -8.6700    6.2540 N.ar  156  TRP156     -0.2442
     10  CE2        3.5740   -8.6600    5.8990 C.ar  156  TRP156      0.0810
     11  CE3        5.6840   -8.2020    6.9540 C.ar  156  TRP156      0.0012
     12  CZ2        4.1820   -8.8360    4.6460 C.ar  156  TRP156      0.0191
     13  CZ3        6.2810   -8.3640    5.7130 C.ar  156  TRP156      0.0001
     14  CH2        5.5450   -8.7100    4.5860 C.ar  156  TRP156      0.0015
     15  N          6.9850   -7.4340   12.7770 N.3   164  GLU164     -0.1231
     16  CA         7.8340   -8.1540   11.8330 C.3   164  GLU164      0.1699
     17  C          7.9940   -7.2710   10.5780 C.2   164  GLU164      0.2592
     18  O          7.0140   -6.8780    9.9650 O.2   164  GLU164     -0.2718
     19  CB         7.2640   -9.5310   11.5240 C.3   164  GLU164      0.0402
     20  CG         8.0100  -10.3010   10.4410 C.3   164  GLU164      0.1161
     21  CD         7.7560  -11.8070   10.4620 C.2   164  GLU164      0.3649
     22  OE1        6.9590  -12.2800   11.3000 O.co2 164  GLU164     -0.2457
     23  OE2        8.3670  -12.5040    9.6240 O.co2 164  GLU164     -0.2457
     24  N          9.2340   -6.9150   10.2620 N.am  165  ARG165     -0.1980
     25  CA         9.5470   -5.9510    9.1790 C.3   165  ARG165      0.1597
     26  C          8.9100   -4.6040    9.5200 C.2   165  ARG165      0.2287
     27  O          8.2620   -3.9480    8.6990 O.2   165  ARG165     -0.2864
     28  CB         9.1400   -6.4640    7.8000 C.3   165  ARG165      0.0334
     29  CG         9.4700   -7.9170    7.5760 C.3   165  ARG165      0.0492
     30  CD        10.9030   -8.2650    7.8130 C.3   165  ARG165      0.2205
     31  NE        11.1620   -9.6520    7.5040 N.pl3 165  ARG165     -0.0865
     32  CZ        12.3700  -10.1990    7.4010 C.cat 165  ARG165      0.5346
     33  NH1       13.4680   -9.4750    7.5760 N.pl3 165  ARG165      0.1354
     34  NH2       12.4790  -11.4770    7.0700 N.pl3 165  ARG165      0.1354
     35  N          0.5750  -11.8620    9.5810 N.3   206  VAL206     -0.1231
     36  CA         0.2860  -13.0050    8.7100 C.3   206  VAL206      0.1692
     37  C          0.9070  -14.3250    9.2180 C.2   206  VAL206      0.2592
     38  O          0.3880  -15.4130    8.9770 O.2   206  VAL206     -0.2718
     39  CB         0.7160  -12.7360    7.2520 C.3   206  VAL206      0.0266
     40  CG1       -0.1540  -11.6420    6.6780 C.3   206  VAL206      0.0020
     41  CG2        2.1850  -12.3920    7.0890 C.3   206  VAL206      0.0020
     42  N          2.0450  -14.2200    9.8990 N.am  207  ASN207     -0.1974
     43  CA         2.6180  -15.3410   10.6430 C.3   207  ASN207      0.1688
     44  C          1.8110  -15.3460   11.9160 C.2   207  ASN207      0.2292
     45  O          2.1600  -14.7140   12.9220 O.2   207  ASN207     -0.2864
     46  CB         4.1010  -15.1170   10.8750 C.3   207  ASN207      0.1181
     47  CG         4.9050  -15.1830    9.5720 C.2   207  ASN207      0.2629
     48  OD1        4.5570  -15.9410    8.6540 O.2   207  ASN207     -0.2716
     49  ND2        5.9930  -14.3960    9.4960 N.am  207  ASN207     -0.0877
     50  N         -2.1640  -16.5010    5.5380 N.3   284  LYS284     -0.1245
     51  CA        -0.8960  -17.0120    5.0790 C.3   284  LYS284      0.1561
     52  C         -0.8430  -18.4790    5.5070 C.2   284  LYS284      0.2260
     53  O         -0.7600  -18.8090    6.6950 O.2   284  LYS284     -0.2867
     54  CB         0.2950  -16.2650    5.6920 C.3   284  LYS284      0.0271
     55  CG         1.6730  -16.8600    5.3040 C.3   284  LYS284      0.0035
     56  CD         2.7560  -16.0410    5.9260 C.3   284  LYS284      0.0206
     57  CE         4.0940  -16.4610    5.3480 C.3   284  LYS284      0.1093
     58  NZ         5.2330  -15.6460    5.9590 N.3   284  LYS284     -0.1314
     59  N          6.4520  -20.7820    4.1910 N.3   288  GLU288     -0.1245
     60  CA         7.4560  -20.4320    5.1940 C.3   288  GLU288      0.1567
     61  C          7.2310  -21.0660    6.5850 C.2   288  GLU288      0.2260
     62  O          7.5460  -20.4740    7.5960 O.2   288  GLU288     -0.2867
     63  CB         7.5950  -18.9060    5.2480 C.3   288  GLU288      0.0388
     64  CG         7.9290  -18.3220    3.8710 C.3   288  GLU288      0.1160
     65  CD         8.2140  -16.8310    3.8790 C.2   288  GLU288      0.3649
     66  OE1        7.7430  -16.1440    4.8000 O.co2 288  GLU288     -0.2457
     67  OE2        8.8550  -16.3690    2.9090 O.co2 288  GLU288     -0.2457
     68  N         -3.8240  -15.5470    0.7730 N.3   321  ARG321     -0.1245
     69  CA        -2.5980  -15.0960    0.1130 C.3   321  ARG321      0.1563
     70  C         -1.9750  -16.1070   -0.8240 C.2   321  ARG321      0.2260
     71  O         -1.9270  -17.2820   -0.5080 O.2   321  ARG321     -0.2867
     72  CB        -1.5580  -14.5800    1.0920 C.3   321  ARG321      0.0307
     73  CG        -2.1040  -13.4770    1.9550 C.3   321  ARG321      0.0489
     74  CD        -1.1160  -13.0860    2.9820 C.3   321  ARG321      0.2205
     75  NE         0.0380  -12.3200    2.5110 N.pl3 321  ARG321     -0.0865
     76  CZ         1.3370  -12.5400    2.7990 C.cat 321  ARG321      0.5346
     77  NH1        1.7890  -13.6570    3.3600 N.pl3 321  ARG321      0.1354
     78  NH2        2.2020  -11.5930    2.5030 N.pl3 321  ARG321      0.1354
     79  N          1.1950  -15.9890   -1.6680 N.3   323  PHE323     -0.1241
     80  CA         2.6210  -16.0350   -1.3670 C.3   323  PHE323      0.1605
     81  C          3.0130  -17.4180   -0.8220 C.2   323  PHE323      0.2264
     82  O          3.1650  -17.6260    0.3670 O.2   323  PHE323     -0.2867
     83  CB         2.9700  -14.9120   -0.3790 C.3   323  PHE323      0.0534
     84  CG         4.4330  -14.7980   -0.0710 C.ar  323  PHE323     -0.0203
     85  CD1        5.3600  -14.4330   -1.0650 C.ar  323  PHE323     -0.0042
     86  CD2        4.8970  -14.9890    1.2030 C.ar  323  PHE323     -0.0042
     87  CE1        6.6850  -14.2830   -0.7680 C.ar  323  PHE323     -0.0003
     88  CE2        6.3020  -14.8510    1.4850 C.ar  323  PHE323     -0.0003
     89  CZ         7.1490  -14.4930    0.4960 C.ar  323  PHE323     -0.0000
     90  N          1.0230  -10.6690   -4.2250 N.3   356  LYS356     -0.1245
     91  CA         2.0410   -9.6240   -4.2420 C.3   356  LYS356      0.1561
     92  C          2.2610   -9.0980   -5.6490 C.2   356  LYS356      0.2260
     93  O          1.9470   -9.7860   -6.6200 O.2   356  LYS356     -0.2867
     94  CB         3.3380  -10.1250   -3.6440 C.3   356  LYS356      0.0271
     95  CG         3.2490  -10.4270   -2.1490 C.3   356  LYS356      0.0035
     96  CD         4.5920  -10.7600   -1.5520 C.3   356  LYS356      0.0206
     97  CE         4.5400  -11.1020   -0.0290 C.3   356  LYS356      0.1093
     98  NZ         5.9300  -11.3230    0.5410 N.3   356  LYS356     -0.1314
     99  N          9.3080  -11.5320   -3.9680 N.3   361  ASP361     -0.1225
    100  CA         9.0810  -11.0480   -2.6230 C.3   361  ASP361      0.1805
    101  C          9.4080   -9.5840   -2.4510 C.2   361  ASP361      0.2597
    102  O         10.4050   -9.2410   -1.8100 O.2   361  ASP361     -0.2718
    103  CB         9.9440  -11.8810   -1.6410 C.3   361  ASP361      0.1424
    104  CG         9.7370  -11.4810   -0.1940 C.2   361  ASP361      0.3668
    105  OD1        8.6860  -10.8420    0.1490 O.co2 361  ASP361     -0.2456
    106  OD2       10.6540  -11.6970    0.6410 O.co2 361  ASP361     -0.2456
    107  N          8.5980   -8.7020   -3.0120 N.am  362  PHE362     -0.1976
    108  CA         8.7570   -7.2560   -2.8000 C.3   362  PHE362      0.1639
    109  C         10.1260   -6.6680   -3.1300 C.2   362  PHE362      0.2290
    110  O         10.5380   -5.6650   -2.5530 O.2   362  PHE362     -0.2864
    111  CB         8.4030   -6.9610   -1.3290 C.3   362  PHE362      0.0560
    112  CG         6.9480   -7.2300   -0.9590 C.ar  362  PHE362     -0.0200
    113  CD1        5.9030   -6.9630   -1.8230 C.ar  362  PHE362     -0.0042
    114  CD2        6.6410   -7.7160    0.3020 C.ar  362  PHE362     -0.0042
    115  CE1        4.5860   -7.1400   -1.4390 C.ar  362  PHE362     -0.0003
    116  CE2        5.3200   -7.8600    0.7190 C.ar  362  PHE362     -0.0003
    117  CZ         4.2860   -7.5760   -0.1770 C.ar  362  PHE362     -0.0000
    118  N         11.1840   -2.9920    3.9650 N.3   389  GLU389     -0.1231
    119  CA        11.9180   -4.2090    4.2320 C.3   389  GLU389      0.1699
    120  C         13.1330   -4.3110    3.3070 C.2   389  GLU389      0.2592
    121  O         14.2200   -4.7290    3.7200 O.2   389  GLU389     -0.2718
    122  CB        11.0210   -5.4480    4.0600 C.3   389  GLU389      0.0402
    123  CG        11.8520   -6.7200    4.1840 C.3   389  GLU389      0.1161
    124  CD        11.0630   -7.9800    4.1240 C.2   389  GLU389      0.3649
    125  OE1        9.8540   -7.9840    3.7560 O.co2 389  GLU389     -0.2457
    126  OE2       11.6820   -9.0330    4.3630 O.co2 389  GLU389     -0.2457
    127  N         12.9280   -3.9330    2.0640 N.am  390  TYR390     -0.1976
    128  CA        13.9440   -4.0780    1.0370 C.3   390  TYR390      0.1639
    129  C         14.4640   -2.7400    0.5060 C.2   390  TYR390      0.2290
    130  O         15.2720   -2.7030   -0.4190 O.2   390  TYR390     -0.2864
    131  CB        13.3530   -4.9750   -0.0720 C.3   390  TYR390      0.0560
    132  CG        13.1140   -6.3830    0.4000 C.ar  390  TYR390     -0.0198
    133  CD1       14.1830   -7.1950    0.7650 C.ar  390  TYR390     -0.0009
    134  CD2       11.8450   -6.9500    0.4100 C.ar  390  TYR390     -0.0009
    135  CE1       13.9960   -8.4760    1.2100 C.ar  390  TYR390      0.0417
    136  CE2       11.6640   -8.2670    0.8380 C.ar  390  TYR390      0.0417
    137  CZ        12.7570   -9.0210    1.2150 C.ar  390  TYR390      0.1957
    138  OH        12.6280  -10.3420    1.6290 O.3   390  TYR390     -0.2866
    139  N         17.6710   -8.7320    6.0080 N.3   524  HIS524     -0.1241
    140  CA        17.5180   -7.8810    4.8490 C.3   524  HIS524      0.1621
    141  C         17.9830   -6.4170    4.9250 C.2   524  HIS524      0.2264
    142  O         17.5720   -5.6040    4.0930 O.2   524  HIS524     -0.2867
    143  CB        16.0890   -7.9600    4.3160 C.3   524  HIS524      0.0745
    144  CG        15.5510   -9.3430    4.1850 C.ar  524  HIS524      0.0817
    145  ND1       16.2940  -10.4580    3.8390 N.ar  524  HIS524     -0.2268
    146  CD2       14.2890   -9.7800    4.3670 C.ar  524  HIS524      0.1154
    147  CE1       15.4820  -11.5010    3.7890 C.ar  524  HIS524      0.1986
    148  NE2       14.2660  -11.1160    4.1300 N.ar  524  HIS524     -0.2212
@<TRIPOS>BOND
     1    93    92    2
     2    92    91    1
     3    91    90    1
     4    91    94    1
     5    99   100    1
     6    94    95    1
     7   109   108    1
     8   109   110    2
     9   107   108    1
    10   107   101   am
    11   108   111    1
    12   100   101    1
    13   100   103    1
    14   101   102    2
    15    95    96    1
    16   113   115   ar
    17   113   112   ar
    18    79    80    1
    19   103   104    1
    20    96    97    1
    21   115   117   ar
    22    80    81    1
    23    80    83    1
    24   111   112    1
    25    85    87   ar
    26    85    84   ar
    27   112   114   ar
    28    70    71    2
    29    70    69    1
    30    81    82    2
    31    87    89   ar
    32   130   129    2
    33    83    84    1
    34   104   105   ar
    35   104   106   ar
    36   117   116   ar
    37   131   132    1
    38   131   128    1
    39    84    86   ar
    40    97    98    1
    41    69    68    1
    42    69    72    1
    43   114   116   ar
    44   132   134   ar
    45   132   133   ar
    46   134   136   ar
    47    89    88   ar
    48   129   128    1
    49   133   135   ar
    50   136   137   ar
    51   128   127    1
    52    72    73    1
    53    86    88   ar
    54   135   137   ar
    55   137   138    1
    56    73    74    1
    57   127   120   am
    58    78    76    1
    59    75    76    2
    60    75    74    1
    61    76    77    1
    62    67    65   ar
    63   120   121    2
    64   120   119    1
    65   125   124   ar
    66   147   145   ar
    67   147   148   ar
    68   145   144   ar
    69    64    65    1
    70    64    63    1
    71    65    66   ar
    72   118   119    1
    73   122   123    1
    74   122   119    1
    75   142   141    2
    76   124   123    1
    77   124   126   ar
    78   148   146   ar
    79   144   143    1
    80   144   146   ar
    81    59    60    1
    82   143   140    1
    83    14    12   ar
    84    14    13   ar
    85    12    10   ar
    86   140   141    1
    87   140   139    1
    88    51    52    1
    89    51    50    1
    90    51    54    1
    91    60    63    1
    92    60    61    1
    93    55    54    1
    94    55    56    1
    95    57    56    1
    96    57    58    1
    97    52    53    2
    98    13    11   ar
    99    10     9   ar
   100    10     8   ar
   101     9     7   ar
   102    61    62    2
   103    40    39    1
   104    11     8   ar
   105     8     6   ar
   106    34    32    1
   107    41    39    1
   108    39    36    1
   109    32    31    2
   110    32    33    1
   111    31    30    1
   112    29    28    1
   113    29    30    1
   114     7     6   ar
   115    28    25    1
   116     6     5    1
   117    48    47    2
   118    27    26    2
   119    36    37    1
   120    36    35    1
   121    38    37    2
   122    25    26    1
   123    25    24    1
   124    37    42   am
   125    49    47   am
   126     5     2    1
   127    47    46    1
   128    23    21   ar
   129    42    43    1
   130    18    17    2
   131     1     2    1
   132    24    17   am
   133    20    21    1
   134    20    19    1
   135    21    22   ar
   136     2     3    1
   137    17    16    1
   138    43    46    1
   139    43    44    1
   140    19    16    1
   141    16    15    1
   142    44    45    2
   143     3     4    2
