@<TRIPOS>MOLECULE
tmp/1gqrA00.pdb
 149 145 0 0 0
SMALL
GASTEIGER

@<TRIPOS>ATOM
      1  N         -3.8330   68.4800   69.5700 N.3    69  ASP69      -0.1239
      2  CA        -2.8420   68.5840   70.6270 C.3    69  ASP69       0.1674
      3  C         -3.2480   69.6420   71.6440 C.2    69  ASP69       0.2266
      4  O         -3.4330   70.8060   71.3000 O.2    69  ASP69      -0.2867
      5  CB        -1.4820   68.9400   70.0210 C.3    69  ASP69       0.1410
      6  CG        -0.3790   69.0820   71.0650 C.2    69  ASP69       0.3668
      7  OD1       -0.5360   68.5840   72.1950 O.co2  69  ASP69      -0.2456
      8  OD2        0.6660   69.6800   70.7470 O.co2  69  ASP69      -0.2456
      9  N          2.8820   74.7810   69.8250 N.3    78  SER78      -0.1217
     10  CA         2.1090   73.5680   69.6120 C.3    78  SER78       0.1889
     11  C          0.7950   73.8280   68.8790 C.2    78  SER78       0.2288
     12  O          0.3850   73.0510   68.0150 O.2    78  SER78      -0.2866
     13  CB         1.8330   72.8810   70.9530 C.3    78  SER78       0.2089
     14  OG         1.1380   73.7470   71.8320 O.3    78  SER78      -0.2183
     15  N          0.1720   74.1690   64.9410 N.3    81  TRP81      -0.1241
     16  CA         0.0200   72.9490   64.1560 C.3    81  TRP81       0.1605
     17  C         -1.3980   72.4060   64.2400 C.2    81  TRP81       0.2264
     18  O         -1.7720   71.5360   63.4550 O.2    81  TRP81      -0.2867
     19  CB         0.9830   71.8720   64.6560 C.3    81  TRP81       0.0550
     20  CG         2.3930   72.3110   64.6510 C.ar   81  TRP81       0.0003
     21  CD1        3.1850   72.5330   65.7380 C.ar   81  TRP81       0.0946
     22  CD2        3.1860   72.6200   63.5010 C.ar   81  TRP81       0.0152
     23  NE1        4.4250   72.9670   65.3390 N.ar   81  TRP81      -0.2442
     24  CE2        4.4560   73.0290   63.9690 C.ar   81  TRP81       0.0810
     25  CE3        2.9490   72.5950   62.1180 C.ar   81  TRP81       0.0012
     26  CZ2        5.4920   73.4080   63.1000 C.ar   81  TRP81       0.0191
     27  CZ3        3.9810   72.9740   61.2530 C.ar   81  TRP81       0.0001
     28  CH2        5.2340   73.3730   61.7520 C.ar   81  TRP81       0.0015
     29  N          2.1840   67.3030   56.8370 N.3   114  GLY114     -0.1210
     30  CA         2.5670   66.1740   57.6710 C.3   114  GLY114      0.1956
     31  C          1.6470   66.0680   58.8740 C.2   114  GLY114      0.2612
     32  O          0.5690   66.6740   58.8900 O.2   114  GLY114     -0.2717
     33  N          2.0700   65.3190   59.8880 N.am  115  GLY115     -0.1942
     34  CA         1.2550   65.1600   61.0800 C.3   115  GLY115      0.2014
     35  C          1.0510   63.7030   61.4610 C.2   115  GLY115      0.2639
     36  O          0.0050   63.3370   61.9900 O.2   115  GLY115     -0.2714
     37  N          2.0260   62.8670   61.1170 N.am  116  GLY116     -0.1954
     38  CA         1.9770   61.4500   61.4310 C.3   116  GLY116      0.1869
     39  C          0.7910   60.6780   60.8940 C.2   116  GLY116      0.2309
     40  O          0.4980   59.5910   61.3830 O.2   116  GLY116     -0.2863
     41  N         -2.0810   61.2070   61.4010 N.3   118  TYR118     -0.1227
     42  CA        -3.1650   61.2860   62.3880 C.3   118  TYR118      0.1736
     43  C         -3.6620   62.7180   62.5760 C.2   118  TYR118      0.2596
     44  O         -4.6480   62.9590   63.2830 O.2   118  TYR118     -0.2718
     45  CB        -2.7300   60.7040   63.7470 C.3   118  TYR118      0.0548
     46  CG        -1.7130   61.5380   64.5090 C.ar  118  TYR118     -0.0200
     47  CD1       -2.1130   62.6220   65.2910 C.ar  118  TYR118     -0.0009
     48  CD2       -0.3510   61.2410   64.4450 C.ar  118  TYR118     -0.0009
     49  CE1       -1.1830   63.3900   65.9890 C.ar  118  TYR118      0.0417
     50  CE2        0.5880   61.9970   65.1340 C.ar  118  TYR118      0.0417
     51  CZ         0.1690   63.0700   65.9040 C.ar  118  TYR118      0.1957
     52  OH         1.1040   63.8240   66.5860 O.3   118  TYR118     -0.2866
     53  N         -2.9630   63.6630   61.9590 N.am  119  SER119     -0.1952
     54  CA        -3.3260   65.0700   62.0540 C.3   119  SER119      0.1924
     55  C         -2.7720   65.8180   60.8620 C.2   119  SER119      0.2314
     56  O         -2.0680   65.2410   60.0360 O.2   119  SER119     -0.2863
     57  CB        -2.7450   65.6740   63.3260 C.3   119  SER119      0.2116
     58  OG        -1.3320   65.6080   63.2940 O.3   119  SER119     -0.2180
     59  N         -3.0010   75.9210   57.8230 N.3   124  LEU124     -0.1245
     60  CA        -2.0960   76.5060   58.8170 C.3   124  LEU124      0.1561
     61  C         -1.3860   77.7520   58.3020 C.2   124  LEU124      0.2260
     62  O         -1.1090   77.8750   57.1080 O.2   124  LEU124     -0.2867
     63  CB        -1.0410   75.4940   59.2650 C.3   124  LEU124      0.0270
     64  CG        -1.5290   74.1830   59.8790 C.3   124  LEU124      0.0019
     65  CD1       -0.3350   73.3720   60.3750 C.3   124  LEU124      0.0001
     66  CD2       -2.5040   74.4610   61.0070 C.3   124  LEU124      0.0001
     67  N          1.7070   77.3250   56.3280 N.3   127  TYR127     -0.1241
     68  CA         1.4950   76.7220   55.0150 C.3   127  TYR127      0.1605
     69  C          0.9300   77.7240   54.0090 C.2   127  TYR127      0.2264
     70  O          0.5630   77.3390   52.9040 O.2   127  TYR127     -0.2867
     71  CB         0.5570   75.5200   55.1040 C.3   127  TYR127      0.0534
     72  CG         1.0650   74.3670   55.9400 C.ar  127  TYR127     -0.0201
     73  CD1        2.4120   74.2630   56.3050 C.ar  127  TYR127     -0.0009
     74  CD2        0.1890   73.3740   56.3710 C.ar  127  TYR127     -0.0009
     75  CE1        2.8630   73.1970   57.0800 C.ar  127  TYR127      0.0417
     76  CE2        0.6280   72.3090   57.1390 C.ar  127  TYR127      0.0417
     77  CZ         1.9570   72.2230   57.4900 C.ar  127  TYR127      0.1957
     78  OH         2.3590   71.1430   58.2380 O.3   127  TYR127     -0.2866
     79  N          6.2230   67.4810   54.1310 N.3   196  GLU196     -0.1231
     80  CA         7.0820   67.3110   55.2940 C.3   196  GLU196      0.1699
     81  C          6.5420   66.2430   56.2420 C.2   196  GLU196      0.2592
     82  O          5.3280   66.1230   56.4160 O.2   196  GLU196     -0.2718
     83  CB         7.2150   68.6560   56.0110 C.3   196  GLU196      0.0402
     84  CG         8.2910   68.7190   57.0810 C.3   196  GLU196      0.1161
     85  CD         7.7730   68.4030   58.4720 C.2   196  GLU196      0.3649
     86  OE1        6.5480   68.4570   58.6910 O.co2 196  GLU196     -0.2457
     87  OE2        8.5990   68.1070   59.3550 O.co2 196  GLU196     -0.2457
     88  N          7.4440   65.4600   56.8350 N.am  197  SER197     -0.1952
     89  CA         7.0660   64.4070   57.7710 C.3   197  SER197      0.1924
     90  C          6.2110   63.3440   57.0700 C.2   197  SER197      0.2314
     91  O          6.6840   62.7160   56.1260 O.2   197  SER197     -0.2863
     92  CB         6.3300   65.0260   58.9570 C.3   197  SER197      0.2116
     93  OG         6.8280   64.3060   60.0380 O.3   197  SER197     -0.2180
     94  N         10.8920   66.3130   69.6410 N.3   327  PHE327     -0.1227
     95  CA         9.4500   66.4550   69.7850 C.3   327  PHE327      0.1736
     96  C          8.7440   65.2940   70.4630 C.2   327  PHE327      0.2595
     97  O          7.9260   65.4900   71.3630 O.2   327  PHE327     -0.2718
     98  CB         8.7940   66.7200   68.4340 C.3   327  PHE327      0.0547
     99  CG         7.9890   67.9650   68.4180 C.ar  327  PHE327     -0.0202
    100  CD1        8.3310   69.0130   67.5780 C.ar  327  PHE327     -0.0042
    101  CD2        6.9560   68.1420   69.3300 C.ar  327  PHE327     -0.0042
    102  CE1        7.6650   70.2370   67.6530 C.ar  327  PHE327     -0.0003
    103  CE2        6.2830   69.3520   69.4150 C.ar  327  PHE327     -0.0003
    104  CZ         6.6400   70.4050   68.5780 C.ar  327  PHE327     -0.0000
    105  N          9.0700   64.0840   70.0370 N.am  328  PHE328     -0.1976
    106  CA         8.4360   62.8950   70.5770 C.3   328  PHE328      0.1639
    107  C          8.9740   62.5040   71.9420 C.2   328  PHE328      0.2290
    108  O          8.2910   61.8370   72.7140 O.2   328  PHE328     -0.2864
    109  CB         8.5160   61.7750   69.5400 C.3   328  PHE328      0.0560
    110  CG         7.9740   62.1940   68.1990 C.ar  328  PHE328     -0.0200
    111  CD1        8.7800   62.8920   67.2950 C.ar  328  PHE328     -0.0042
    112  CD2        6.6310   62.0110   67.8890 C.ar  328  PHE328     -0.0042
    113  CE1        8.2540   63.4080   66.1100 C.ar  328  PHE328     -0.0003
    114  CE2        6.0960   62.5210   66.7080 C.ar  328  PHE328     -0.0003
    115  CZ         6.9110   63.2230   65.8180 C.ar  328  PHE328     -0.0000
    116  N          7.0780   64.8950   74.3440 N.3   331  TYR331     -0.1241
    117  CA         5.7260   64.3950   74.5280 C.3   331  TYR331      0.1605
    118  C          5.5610   63.0240   75.1620 C.2   331  TYR331      0.2264
    119  O          4.5430   62.7750   75.7980 O.2   331  TYR331     -0.2867
    120  CB         4.9620   64.4270   73.2070 C.3   331  TYR331      0.0534
    121  CG         4.4640   65.7990   72.8420 C.ar  331  TYR331     -0.0201
    122  CD1        5.3490   66.8330   72.5630 C.ar  331  TYR331     -0.0009
    123  CD2        3.1020   66.0720   72.8040 C.ar  331  TYR331     -0.0009
    124  CE1        4.8900   68.1080   72.2600 C.ar  331  TYR331      0.0417
    125  CE2        2.6340   67.3450   72.5020 C.ar  331  TYR331      0.0417
    126  CZ         3.5310   68.3570   72.2330 C.ar  331  TYR331      0.1957
    127  OH         3.0600   69.6160   71.9560 O.3   331  TYR331     -0.2866
    128  N         12.0290   69.3250   64.3220 N.3   437  HIS437     -0.1226
    129  CA        11.4240   68.8730   63.0930 C.3   437  HIS437      0.1752
    130  C         10.2220   69.7730   62.7790 C.2   437  HIS437      0.2596
    131  O          9.5000   70.1940   63.6880 O.2   437  HIS437     -0.2718
    132  CB        11.0540   67.3920   63.2380 C.3   437  HIS437      0.0759
    133  CG         9.6060   67.1000   63.0420 C.ar  437  HIS437      0.0818
    134  ND1        9.0810   66.7570   61.8170 N.ar  437  HIS437     -0.2268
    135  CD2        8.5650   67.1280   63.9070 C.ar  437  HIS437      0.1154
    136  CE1        7.7750   66.5950   61.9320 C.ar  437  HIS437      0.1986
    137  NE2        7.4360   66.8140   63.1910 N.ar  437  HIS437     -0.2212
    138  N         10.0870   70.1390   61.5050 N.am  438  GLY438     -0.1957
    139  CA         8.9930   70.9880   61.0650 C.3   438  GLY438      0.1869
    140  C          9.3080   72.4720   61.0270 C.2   438  GLY438      0.2309
    141  O          8.5890   73.2490   60.4010 O.2   438  GLY438     -0.2863
    142  N          9.9190   74.5100   57.5740 N.3   441  ILE441     -0.1245
    143  CA         8.7540   74.8070   56.7580 C.3   441  ILE441      0.1561
    144  C          8.5470   76.3070   56.6050 C.2   441  ILE441      0.2260
    145  O          8.2940   76.7870   55.5020 O.2   441  ILE441     -0.2867
    146  CB         7.4790   74.1710   57.3450 C.3   441  ILE441      0.0252
    147  CG1        7.6210   72.6470   57.3820 C.3   441  ILE441      0.0019
    148  CG2        6.2580   74.5890   56.5350 C.3   441  ILE441      0.0019
    149  CD1        6.4620   71.9460   58.0420 C.3   441  ILE441      0.0001
@<TRIPOS>BOND
     1    70    69    2
     2    69    68    1
     3    79    80    1
     4    68    71    1
     5    68    67    1
     6    71    72    1
     7    80    83    1
     8    80    81    1
     9   145   144    2
    10    72    73   ar
    11    72    74   ar
    12    83    84    1
    13    91    90    2
    14    81    82    2
    15    81    88   am
    16    73    75   ar
    17    74    76   ar
    18   148   146    1
    19   144   143    1
    20   143   146    1
    21   143   142    1
    22    88    89    1
    23    29    30    1
    24    90    89    1
    25    75    77   ar
    26    84    85    1
    27    62    61    2
    28    76    77   ar
    29   146   147    1
    30   147   149    1
    31    77    78    1
    32    30    31    1
    33    89    92    1
    34    59    60    1
    35    61    60    1
    36    85    86   ar
    37    85    87   ar
    38    60    63    1
    39    31    32    2
    40    31    33   am
    41    92    93    1
    42    63    64    1
    43    64    65    1
    44    64    66    1
    45    33    34    1
    46    56    55    2
    47   141   140    2
    48    55    54    1
    49    39    40    2
    50    39    38    1
    51   140   139    1
    52   139   138    1
    53    34    35    1
    54    37    38    1
    55    37    35   am
    56    27    28   ar
    57    27    25   ar
    58    41    42    1
    59    35    36    2
    60   138   130   am
    61    28    26   ar
    62   134   136   ar
    63   134   133   ar
    64   136   137   ar
    65    53    54    1
    66    53    43   am
    67    54    57    1
    68    25    22   ar
    69    42    43    1
    70    42    45    1
    71    43    44    2
    72   130   129    1
    73   130   131    2
    74   133   132    1
    75   133   135   ar
    76   129   132    1
    77   129   128    1
    78    26    24   ar
    79   137   135   ar
    80    58    57    1
    81    18    17    2
    82    22    24   ar
    83    22    20   ar
    84    45    46    1
    85    24    23   ar
    86    16    17    1
    87    16    19    1
    88    16    15    1
    89    48    46   ar
    90    48    50   ar
    91    46    47   ar
    92    20    19    1
    93    20    21   ar
    94    50    51   ar
    95    47    49   ar
    96    23    21   ar
    97   115   113   ar
    98   115   114   ar
    99    51    49   ar
   100    51    52    1
   101   113   111   ar
   102   114   112   ar
   103   111   110   ar
   104   100   102   ar
   105   100    99   ar
   106   102   104   ar
   107   112   110   ar
   108    12    11    2
   109   110   109    1
   110    99    98    1
   111    99   101   ar
   112    98    95    1
   113   104   103   ar
   114    11    10    1
   115   101   103   ar
   116   109   106    1
   117     1     2    1
   118    10     9    1
   119    10    13    1
   120    94    95    1
   121    95    96    1
   122     5     2    1
   123     5     6    1
   124   105    96   am
   125   105   106    1
   126    96    97    2
   127   106   107    1
   128     2     3    1
   129     8     6   ar
   130    13    14    1
   131     6     7   ar
   132     4     3    2
   133   107   108    2
   134   127   126    1
   135   126   124   ar
   136   126   125   ar
   137   124   122   ar
   138   125   123   ar
   139   122   121   ar
   140   123   121   ar
   141   121   120    1
   142   120   117    1
   143   116   117    1
   144   117   118    1
   145   118   119    2
