@<TRIPOS>MOLECULE
tmp/1gqtA00.pdb
 182 170 0 0 0
SMALL
GASTEIGER

@<TRIPOS>ATOM
      1  N         11.3600    5.1060   79.1230 N.3    40  LYS40      -0.1245
      2  CA        12.0020    4.6500   77.8920 C.3    40  LYS40       0.1561
      3  C         11.6220    5.4820   76.6580 C.2    40  LYS40       0.2260
      4  O         12.4850    5.8380   75.8690 O.2    40  LYS40      -0.2867
      5  CB        11.6960    3.1750   77.6280 C.3    40  LYS40       0.0271
      6  CG        12.4420    2.2360   78.5820 C.3    40  LYS40       0.0035
      7  CD        12.3920    0.7690   78.1420 C.3    40  LYS40       0.0206
      8  CE        13.1630   -0.1020   79.1300 C.3    40  LYS40       0.1093
      9  NZ        14.6270    0.2510   79.2110 N.3    40  LYS40      -0.1314
     10  N         12.2300   -1.3630   70.1280 N.3   163  ASN163     -0.1240
     11  CA        13.0990   -1.7470   71.2160 C.3   163  ASN163      0.1653
     12  C         12.2840   -2.5100   72.2650 C.2   163  ASN163      0.2266
     13  O         11.4960   -1.9030   72.9890 O.2   163  ASN163     -0.2867
     14  CB        13.6680   -0.4790   71.8340 C.3   163  ASN163      0.1155
     15  CG        14.5840   -0.7620   73.0020 C.2   163  ASN163      0.2627
     16  OD1       14.4860   -0.1080   74.0210 O.2   163  ASN163     -0.2716
     17  ND2       15.4760   -1.7390   72.8570 N.am  163  ASN163     -0.0877
     18  N         11.8540   -3.5450   75.2380 N.3   165  ALA165     -0.1245
     19  CA        12.2360   -3.3960   76.6250 C.3   165  ALA165      0.1562
     20  C         11.0950   -2.6340   77.3080 C.2   165  ALA165      0.2260
     21  O         10.4850   -1.7570   76.7190 O.2   165  ALA165     -0.2867
     22  CB        13.5470   -2.6080   76.7070 C.3   165  ALA165      0.0290
     23  N         18.4210   -6.4430   73.9510 N.3   184  ASN184     -0.1225
     24  CA        19.6480   -6.6910   74.6690 C.3   184  ASN184      0.1785
     25  C         19.6770   -8.2110   74.8100 C.2   184  ASN184      0.2597
     26  O         18.8240   -8.8920   74.2640 O.2   184  ASN184     -0.2718
     27  CB        19.6570   -5.9440   76.0290 C.3   184  ASN184      0.1169
     28  CG        18.6250   -6.4760   77.0110 C.2   184  ASN184      0.2627
     29  OD1       18.0240   -7.5260   76.7950 O.2   184  ASN184     -0.2716
     30  ND2       18.3930   -5.7260   78.0950 N.am  184  ASN184     -0.0877
     31  N         20.6470   -8.7470   75.5400 N.am  185  GLU185     -0.1979
     32  CA        20.8160  -10.1980   75.6150 C.3   185  GLU185      0.1602
     33  C         19.6570  -10.8840   76.3330 C.2   185  GLU185      0.2287
     34  O         19.2140  -11.9440   75.9160 O.2   185  GLU185     -0.2864
     35  CB        22.1830  -10.5520   76.2240 C.3   185  GLU185      0.0415
     36  CG        23.3400  -10.0520   75.3620 C.3   185  GLU185      0.1163
     37  CD        24.6430   -9.8200   76.1250 C.2   185  GLU185      0.3649
     38  OE1       24.7940   -8.7480   76.7740 O.co2 185  GLU185     -0.2457
     39  OE2       25.5370  -10.7060   76.0560 O.co2 185  GLU185     -0.2457
     40  N         16.5560   -9.8820   76.4580 N.3   187  GLU187     -0.1245
     41  CA        15.3870   -9.8760   75.5880 C.3   187  GLU187      0.1567
     42  C         15.5010  -10.9130   74.4870 C.2   187  GLU187      0.2260
     43  O         14.5630  -11.6530   74.2210 O.2   187  GLU187     -0.2867
     44  CB        15.1310   -8.4720   75.0440 C.3   187  GLU187      0.0388
     45  CG        14.9620   -7.4810   76.1840 C.3   187  GLU187      0.1160
     46  CD        15.4200   -6.0690   75.8630 C.2   187  GLU187      0.3649
     47  OE1       15.2870   -5.6370   74.6990 O.co2 187  GLU187     -0.2457
     48  OE2       15.8970   -5.3880   76.7980 O.co2 187  GLU187     -0.2457
     49  N         22.1860   -5.7610   71.3960 N.3   220  THR220     -0.1218
     50  CA        23.1840   -5.0400   72.1760 C.3   220  THR220      0.1862
     51  C         23.8550   -5.9860   73.1640 C.2   220  THR220      0.2287
     52  O         23.2250   -6.8910   73.7230 O.2   220  THR220     -0.2866
     53  CB        22.5820   -3.8910   72.9670 C.3   220  THR220      0.1770
     54  OG1       21.5370   -4.3900   73.8120 O.3   220  THR220     -0.2211
     55  CG2       21.9270   -2.8950   72.0380 C.3   220  THR220      0.0375
     56  N         26.0630   -5.0120   75.7950 N.3   222  GLY222     -0.1210
     57  CA        26.6770   -4.2040   76.8320 C.3   222  GLY222      0.1956
     58  C         27.9750   -3.5570   76.3840 C.2   222  GLY222      0.2612
     59  O         28.0390   -2.8780   75.3580 O.2   222  GLY222     -0.2717
     60  N         29.0270   -3.7730   77.1660 N.am  223  SER223     -0.1952
     61  CA        30.3170   -3.1630   76.8800 C.3   223  SER223      0.1924
     62  C         30.9390   -3.8510   75.6780 C.2   223  SER223      0.2314
     63  O         31.9390   -3.3830   75.1380 O.2   223  SER223     -0.2863
     64  CB        31.2540   -3.2630   78.0890 C.3   223  SER223      0.2116
     65  OG        31.7410   -4.5800   78.2590 O.3   223  SER223     -0.2180
     66  N         29.4650   -3.9560   72.7820 N.3   225  GLY225     -0.1225
     67  CA        28.9520   -3.2900   71.5880 C.3   225  GLY225      0.1811
     68  C         27.6390   -3.8670   71.0740 C.2   225  GLY225      0.2280
     69  O         26.6860   -4.0350   71.8400 O.2   225  GLY225     -0.2866
     70  N         31.7320   -1.3790   70.8250 N.3   239  GLY239     -0.1210
     71  CA        31.4140   -0.0340   71.2430 C.3   239  GLY239      0.1956
     72  C         32.7140    0.6540   71.5630 C.2   239  GLY239      0.2612
     73  O         33.7650    0.0360   71.4490 O.2   239  GLY239     -0.2717
     74  N         32.6430    1.9140   71.9560 N.am  240  PHE240     -0.1962
     75  CA        33.8200    2.6430   72.3850 C.3   240  PHE240      0.1771
     76  C         34.1660    2.2980   73.8280 C.2   240  PHE240      0.2619
     77  O         33.2890    1.9270   74.6100 O.2   240  PHE240     -0.2715
     78  CB        33.5860    4.1520   72.2760 C.3   240  PHE240      0.0574
     79  CG        33.4000    4.6210   70.8810 C.ar  240  PHE240     -0.0200
     80  CD1       34.4840    4.6980   70.0220 C.ar  240  PHE240     -0.0042
     81  CD2       32.1320    4.9650   70.4110 C.ar  240  PHE240     -0.0042
     82  CE1       34.3140    5.1250   68.7050 C.ar  240  PHE240     -0.0003
     83  CE2       31.9450    5.3820   69.1070 C.ar  240  PHE240     -0.0003
     84  CZ        33.0460    5.4630   68.2430 C.ar  240  PHE240     -0.0000
     85  N         35.4420    2.4310   74.1780 N.am  241  ARG241     -0.1963
     86  CA        35.8760    2.1590   75.5440 C.3   241  ARG241      0.1729
     87  C         35.9680    3.4360   76.3770 C.2   241  ARG241      0.2616
     88  O         36.7080    4.3690   76.0500 O.2   241  ARG241     -0.2715
     89  CB        37.1770    1.3500   75.5660 C.3   241  ARG241      0.0348
     90  CG        36.9340   -0.1560   75.4430 C.3   241  ARG241      0.0492
     91  CD        37.8810   -0.9050   74.4930 C.3   241  ARG241      0.2205
     92  NE        38.1150   -2.2780   74.9470 N.pl3 241  ARG241     -0.0865
     93  CZ        38.8310   -2.5980   76.0230 C.cat 241  ARG241      0.5346
     94  NH1       39.4060   -1.6520   76.7590 N.pl3 241  ARG241      0.1354
     95  NH2       38.9820   -3.8720   76.3610 N.pl3 241  ARG241      0.1354
     96  N         35.1870    3.4780   77.4460 N.am  242  VAL242     -0.1977
     97  CA        35.1280    4.6500   78.3000 C.3   242  VAL242      0.1596
     98  C         35.0700    4.2400   79.7650 C.2   242  VAL242      0.2287
     99  O         34.8710    3.0810   80.1080 O.2   242  VAL242     -0.2864
    100  CB        33.8860    5.5080   77.9950 C.3   242  VAL242      0.0276
    101  CG1       34.0640    6.2880   76.7000 C.3   242  VAL242      0.0022
    102  CG2       32.6460    4.6390   77.9510 C.3   242  VAL242      0.0022
    103  N         32.9630    3.9590   82.3680 N.3   244  ALA244     -0.1245
    104  CA        31.5300    3.9860   82.6200 C.3   244  ALA244      0.1562
    105  C         31.2540    4.5070   84.0200 C.2   244  ALA244      0.2260
    106  O         32.0850    4.3820   84.9190 O.2   244  ALA244     -0.2867
    107  CB        30.9330    2.6030   82.4440 C.3   244  ALA244      0.0290
    108  N         24.8950    3.4180   83.7770 N.3   247  THR247     -0.1203
    109  CA        24.3830    2.7340   82.5810 C.3   247  THR247      0.1994
    110  C         22.8790    2.8620   82.3020 C.2   247  THR247      0.2618
    111  O         22.3970    2.4880   81.2260 O.2   247  THR247     -0.2717
    112  CB        24.8100    1.2240   82.5000 C.3   247  THR247      0.1784
    113  OG1       24.3140    0.4770   83.6210 O.3   247  THR247     -0.2211
    114  CG2       26.3260    1.0440   82.5990 C.3   247  THR247      0.0376
    115  N         22.1130    3.3820   83.2510 N.am  248  ILE248     -0.1965
    116  CA        20.6990    3.5740   82.9620 C.3   248  ILE248      0.1727
    117  C         20.5940    4.3390   81.6470 C.2   248  ILE248      0.2616
    118  O         21.3770    5.2520   81.3980 O.2   248  ILE248     -0.2715
    119  CB        20.0260    4.3950   84.0650 C.3   248  ILE248      0.0290
    120  CG1       20.1920    5.8830   83.7770 C.3   248  ILE248      0.0022
    121  CG2       20.6260    4.0760   85.4190 C.3   248  ILE248      0.0023
    122  CD1       20.2560    6.7260   85.0250 C.3   248  ILE248      0.0001
    123  N         19.6210    3.9690   80.8200 N.am  249  ALA249     -0.1963
    124  CA        19.3560    4.6410   79.5530 C.3   249  ALA249      0.1728
    125  C         20.4530    4.6180   78.4870 C.2   249  ALA249      0.2616
    126  O         20.3730    5.3730   77.5170 O.2   249  ALA249     -0.2715
    127  CB        18.8580    6.0650   79.7710 C.3   249  ALA249      0.0334
    128  N         21.4560    3.7700   78.6460 N.am  250  ALA250     -0.1963
    129  CA        22.4470    3.6290   77.5920 C.3   250  ALA250      0.1728
    130  C         21.7750    3.1050   76.3330 C.2   250  ALA250      0.2617
    131  O         22.0350    3.5980   75.2370 O.2   250  ALA250     -0.2715
    132  CB        23.6090    2.6910   78.0260 C.3   250  ALA250      0.0334
    133  N         20.9210    2.0990   76.4940 N.am  251  GLY251     -0.1940
    134  CA        20.2310    1.5070   75.3550 C.3   251  GLY251      0.2014
    135  C         19.2250    2.4760   74.7590 C.2   251  GLY251      0.2638
    136  O         18.9790    2.4730   73.5590 O.2   251  GLY251     -0.2714
    137  N         18.6310    3.3080   75.6090 N.am  252  ASP252     -0.1971
    138  CA        17.6880    4.3100   75.1480 C.3   252  ASP252      0.1709
    139  C         18.4990    5.2570   74.2930 C.2   252  ASP252      0.2293
    140  O         18.0610    5.7020   73.2510 O.2   252  ASP252     -0.2864
    141  CB        17.0620    5.0600   76.3360 C.3   252  ASP252      0.1436
    142  CG        16.1040    4.1850   77.1520 C.2   252  ASP252      0.3671
    143  OD1       15.4600    3.3080   76.5340 O.co2 252  ASP252     -0.2456
    144  OD2       15.9500    4.2800   78.4010 O.co2 252  ASP252     -0.2456
    145  N         21.0810    4.8310   72.7090 N.3   254  PHE254     -0.1241
    146  CA        21.5960    4.1700   71.5500 C.3   254  PHE254      0.1605
    147  C         20.5100    4.0830   70.4960 C.2   254  PHE254      0.2264
    148  O         20.7440    4.4000   69.3370 O.2   254  PHE254     -0.2867
    149  CB        22.0670    2.7850   71.9520 C.3   254  PHE254      0.0534
    150  CG        22.4630    1.9250   70.8020 C.ar  254  PHE254     -0.0203
    151  CD1       23.7610    1.9370   70.3220 C.ar  254  PHE254     -0.0042
    152  CD2       21.5470    1.0950   70.2100 C.ar  254  PHE254     -0.0042
    153  CE1       24.1350    1.1120   69.2810 C.ar  254  PHE254     -0.0003
    154  CE2       21.9280    0.2600   69.1830 C.ar  254  PHE254     -0.0003
    155  CZ        23.2240    0.2690   68.7200 C.ar  254  PHE254     -0.0000
    156  N         26.8460    4.4140   69.0700 N.3   276  HIS276     -0.1241
    157  CA        27.7300    3.8510   70.0840 C.3   276  HIS276      0.1621
    158  C         28.3870    5.0550   70.7420 C.2   276  HIS276      0.2264
    159  O         28.5700    5.1150   71.9620 O.2   276  HIS276     -0.2867
    160  CB        28.8280    3.0310   69.4040 C.3   276  HIS276      0.0745
    161  CG        28.5720    1.5550   69.3310 C.ar  276  HIS276      0.0817
    162  ND1       27.7580    0.8800   70.2150 N.ar  276  HIS276     -0.2268
    163  CD2       29.0520    0.6160   68.4740 C.ar  276  HIS276      0.1154
    164  CE1       27.7350   -0.4050   69.9010 C.ar  276  HIS276      0.1986
    165  NE2       28.5140   -0.5940   68.8470 N.ar  276  HIS276     -0.2212
    166  N         25.8920    6.7280   73.1480 N.3   279  ALA279     -0.1231
    167  CA        25.6730    5.9850   74.3650 C.3   279  ALA279      0.1694
    168  C         26.8980    6.1250   75.2790 C.2   279  ALA279      0.2591
    169  O         26.7720    6.2890   76.4960 O.2   279  ALA279     -0.2718
    170  CB        25.3890    4.5480   74.0230 C.3   279  ALA279      0.0304
    171  N         28.0890    6.0760   74.6930 N.am  280  ALA280     -0.1980
    172  CA        29.3110    6.1310   75.4940 C.3   280  ALA280      0.1597
    173  C         29.3910    7.4340   76.2660 C.2   280  ALA280      0.2287
    174  O         29.8230    7.4270   77.4070 O.2   280  ALA280     -0.2864
    175  CB        30.5970    5.9160   74.6410 C.3   280  ALA280      0.0319
    176  N         26.9930    7.0370   79.2350 N.3   283  VAL283     -0.1245
    177  CA        27.3960    6.2410   80.3800 C.3   283  VAL283      0.1561
    178  C         28.4300    6.9510   81.2690 C.2   283  VAL283      0.2260
    179  O         28.8380    6.3800   82.2770 O.2   283  VAL283     -0.2867
    180  CB        27.8920    4.8110   79.9930 C.3   283  VAL283      0.0252
    181  CG1       26.8340    4.0370   79.2540 C.3   283  VAL283      0.0019
    182  CG2       29.1670    4.8700   79.1490 C.3   283  VAL283      0.0019
@<TRIPOS>BOND
     1    84    82   ar
     2    84    83   ar
     3   163   165   ar
     4   163   161   ar
     5    82    80   ar
     6   155   154   ar
     7   155   153   ar
     8   165   164   ar
     9   156   157    1
    10    83    81   ar
    11   154   152   ar
    12   153   151   ar
    13   161   160    1
    14   161   162   ar
    15   148   147    2
    16   160   157    1
    17   164   162   ar
    18    80    79   ar
    19   157   158    1
    20    10    11    1
    21   152   150   ar
    22   151   150   ar
    23    81    79   ar
    24   147   146    1
    25   158   159    2
    26   150   149    1
    27    70    71    1
    28    79    78    1
    29    68    67    1
    30    68    69    2
    31    11    14    1
    32    11    12    1
    33    71    72    1
    34    49    50    1
    35    73    72    2
    36   146   149    1
    37   146   145    1
    38    72    74   am
    39    67    66    1
    40    14    15    1
    41    74    75    1
    42    55    53    1
    43    50    53    1
    44    50    51    1
    45    12    13    2
    46    78    75    1
    47    75    76    1
    48    17    15   am
    49    53    54    1
    50    15    16    2
    51   166   167    1
    52    51    52    2
    53   140   139    2
    54   136   135    2
    55    76    85   am
    56    76    77    2
    57    23    24    1
    58   170   167    1
    59    85    86    1
    60    43    42    2
    61    26    25    2
    62   139   138    1
    63   167   168    1
    64    42    41    1
    65    91    92    1
    66    91    90    1
    67   175   172    1
    68    24    25    1
    69    24    27    1
    70   171   168   am
    71   171   172    1
    72    47    46   ar
    73   135   134    1
    74   135   137   am
    75    25    31   am
    76    92    93    2
    77    44    41    1
    78    44    45    1
    79    63    62    2
    80   138   137    1
    81   138   141    1
    82   131   130    2
    83    18    19    1
    84   168   169    2
    85   134   133    1
    86    59    58    2
    87    36    37    1
    88    36    35    1
    89    90    89    1
    90   172   173    1
    91    31    32    1
    92    86    89    1
    93    86    87    1
    94    41    40    1
    95    32    35    1
    96    32    33    1
    97    62    61    1
    98    56    57    1
    99    46    45    1
   100    46    48   ar
   101     4     3    2
   102    34    33    2
   103    93    95    1
   104    93    94    1
   105    27    28    1
   106    88    87    2
   107    39    37   ar
   108    37    38   ar
   109   173   174    2
   110   130   133   am
   111   130   129    1
   112   141   142    1
   113    87    96   am
   114    58    57    1
   115    58    60   am
   116   143   142   ar
   117    19    22    1
   118    19    20    1
   119     3     2    1
   120   101   100    1
   121    21    20    2
   122    29    28    2
   123    61    60    1
   124    61    64    1
   125    28    30   am
   126   142   144   ar
   127    96    97    1
   128   126   125    2
   129   129   132    1
   130   129   128    1
   131     5     2    1
   132     5     6    1
   133     2     1    1
   134   102   100    1
   135   100    97    1
   136    64    65    1
   137     7     6    1
   138     7     8    1
   139    97    98    1
   140   125   128   am
   141   125   124    1
   142     8     9    1
   143   182   180    1
   144   176   177    1
   145   181   180    1
   146   124   127    1
   147   124   123    1
   148    98    99    2
   149   180   177    1
   150   177   178    1
   151   123   117   am
   152   111   110    2
   153   178   179    2
   154   118   117    2
   155   117   116    1
   156   110   109    1
   157   110   115   am
   158   103   104    1
   159   107   104    1
   160   112   109    1
   161   112   114    1
   162   112   113    1
   163   109   108    1
   164   104   105    1
   165   116   115    1
   166   116   119    1
   167   120   119    1
   168   120   122    1
   169   105   106    2
   170   119   121    1
