@<TRIPOS>MOLECULE
tmp/1gqyB00.pdb
 177 172 0 0 0
SMALL
GASTEIGER

@<TRIPOS>ATOM
      1  N         35.0630   42.4320   75.3070 N.3   121  THR121     -0.1203
      2  CA        33.8210   41.6120   75.4630 C.3   121  THR121      0.1994
      3  C         32.6710   42.3840   76.0560 C.2   121  THR121      0.2618
      4  O         31.5220   42.2860   75.5480 O.2   121  THR121     -0.2717
      5  CB        34.1580   40.3550   76.4030 C.3   121  THR121      0.1784
      6  OG1       35.3670   39.7270   75.9320 O.3   121  THR121     -0.2211
      7  CG2       33.0000   39.1960   76.2830 C.3   121  THR121      0.0376
      8  N         32.9550   43.1760   77.1250 N.am  122  HIS122     -0.1961
      9  CA        31.9230   43.7920   77.9030 C.3   122  HIS122      0.1787
     10  C         32.2880   45.2910   78.2180 C.2   122  HIS122      0.2621
     11  O         33.4610   45.5800   78.4420 O.2   122  HIS122     -0.2715
     12  CB        31.7870   43.1430   79.3230 C.3   122  HIS122      0.0785
     13  CG        31.7790   41.6480   79.3720 C.ar  122  HIS122      0.0821
     14  ND1       30.7570   40.8750   78.8440 N.ar  122  HIS122     -0.2267
     15  CD2       32.6820   40.7820   79.9120 C.ar  122  HIS122      0.1154
     16  CE1       31.0260   39.5930   79.0590 C.ar  122  HIS122      0.1986
     17  NE2       32.1920   39.5050   79.7060 N.ar  122  HIS122     -0.2212
     18  N         31.3110   46.1940   78.2450 N.am  123  GLY123     -0.1940
     19  CA        31.5300   47.5850   78.6540 C.3   123  GLY123      0.2014
     20  C         31.7610   48.5560   77.4840 C.2   123  GLY123      0.2639
     21  O         32.0630   49.7100   77.7120 O.2   123  GLY123     -0.2714
     22  N         31.6350   48.1120   76.2200 N.am  124  LYS124     -0.1963
     23  CA        32.0090   48.9830   75.0990 C.3   124  LYS124      0.1728
     24  C         31.1080   50.1820   74.9930 C.2   124  LYS124      0.2617
     25  O         31.5890   51.3210   74.9160 O.2   124  LYS124     -0.2715
     26  CB        31.9960   48.2140   73.7370 C.3   124  LYS124      0.0311
     27  CG        33.0040   47.0040   73.6850 C.3   124  LYS124      0.0038
     28  CD        32.8160   46.2990   72.3100 C.3   124  LYS124      0.0206
     29  CE        31.5090   45.4070   72.1840 C.3   124  LYS124      0.1093
     30  NZ        31.2940   44.4460   73.3520 N.3   124  LYS124     -0.1314
     31  N         29.7870   49.9430   74.9880 N.am  125  THR125     -0.1937
     32  CA        28.8480   51.0790   74.8190 C.3   125  THR125      0.2028
     33  C         28.9980   52.0900   75.9650 C.2   125  THR125      0.2642
     34  O         28.9740   53.3240   75.7800 O.2   125  THR125     -0.2714
     35  CB        27.3920   50.4820   74.7020 C.3   125  THR125      0.1808
     36  OG1       27.1930   49.9080   73.3800 O.3   125  THR125     -0.2208
     37  CG2       26.3420   51.6200   74.7800 C.3   125  THR125      0.0379
     38  N         29.1500   51.5730   77.1690 N.am  126  THR126     -0.1950
     39  CA        29.2990   52.4210   78.3420 C.3   126  THR126      0.1897
     40  C         30.5540   53.2620   78.3050 C.2   126  THR126      0.2313
     41  O         30.5240   54.4930   78.5130 O.2   126  THR126     -0.2863
     42  CB        29.2540   51.6190   79.6580 C.3   126  THR126      0.1794
     43  OG1       28.0010   50.9520   79.8240 O.3   126  THR126     -0.2208
     44  CG2       29.3800   52.6130   80.8740 C.3   126  THR126      0.0378
     45  N         32.5520   52.8770   69.1040 N.3   168  GLU168     -0.1245
     46  CA        32.5290   51.5030   69.5900 C.3   168  GLU168      0.1567
     47  C         33.0340   50.6110   68.4400 C.2   168  GLU168      0.2260
     48  O         32.5760   50.7890   67.3140 O.2   168  GLU168     -0.2867
     49  CB        31.0680   51.1230   69.9130 C.3   168  GLU168      0.0388
     50  CG        30.9050   49.6330   70.2520 C.3   168  GLU168      0.1160
     51  CD        29.6210   49.3550   71.0500 C.2   168  GLU168      0.3649
     52  OE1       29.3080   48.1760   71.1770 O.co2 168  GLU168     -0.2457
     53  OE2       28.9800   50.3010   71.5440 O.co2 168  GLU168     -0.2457
     54  N         38.5900   46.6850   76.8230 N.3   187  THR187     -0.1203
     55  CA        38.1330   46.6150   78.2210 C.3   187  THR187      0.1994
     56  C         38.3510   45.2640   78.8760 C.2   187  THR187      0.2617
     57  O         38.5980   45.2110   80.0470 O.2   187  THR187     -0.2717
     58  CB        36.6450   46.8770   78.2670 C.3   187  THR187      0.1784
     59  OG1       36.0060   45.9440   77.3590 O.3   187  THR187     -0.2211
     60  CG2       36.3140   48.3660   77.7650 C.3   187  THR187      0.0376
     61  N         38.2420   44.1670   78.1130 N.am  188  ASN188     -0.1974
     62  CA        38.4320   42.8540   78.7140 C.3   188  ASN188      0.1688
     63  C         38.3450   41.8480   77.5130 C.2   188  ASN188      0.2292
     64  O         38.0050   42.2520   76.4050 O.2   188  ASN188     -0.2864
     65  CB        37.3380   42.5200   79.7760 C.3   188  ASN188      0.1181
     66  CG        35.9830   43.0640   79.3650 C.2   188  ASN188      0.2629
     67  OD1       35.4550   42.6390   78.3610 O.2   188  ASN188     -0.2716
     68  ND2       35.4370   44.0370   80.1450 N.am  188  ASN188     -0.0877
     69  N         32.3770   47.4770   88.1090 N.3   286  HIS286     -0.1226
     70  CA        32.6030   47.3170   86.6800 C.3   286  HIS286      0.1752
     71  C         32.4820   48.7040   85.9830 C.2   286  HIS286      0.2596
     72  O         33.2110   48.9910   85.0260 O.2   286  HIS286     -0.2718
     73  CB        31.6400   46.2790   86.1060 C.3   286  HIS286      0.0759
     74  CG        30.2090   46.6800   86.2540 C.ar  286  HIS286      0.0818
     75  ND1       29.5600   46.6310   87.4670 N.ar  286  HIS286     -0.2268
     76  CD2       29.3000   47.1330   85.3540 C.ar  286  HIS286      0.1154
     77  CE1       28.3100   47.0180   87.3080 C.ar  286  HIS286      0.1986
     78  NE2       28.1310   47.3500   86.0390 N.ar  286  HIS286     -0.2212
     79  N         31.5690   49.5540   86.4620 N.am  287  ASN287     -0.1974
     80  CA        31.4800   50.9340   85.9120 C.3   287  ASN287      0.1688
     81  C         32.6700   51.8190   86.2760 C.2   287  ASN287      0.2292
     82  O         33.0610   52.6320   85.4810 O.2   287  ASN287     -0.2864
     83  CB        30.1540   51.6720   86.2190 C.3   287  ASN287      0.1181
     84  CG        29.0150   51.1620   85.3450 C.2   287  ASN287      0.2629
     85  OD1       29.1800   51.0380   84.1570 O.2   287  ASN287     -0.2716
     86  ND2       27.8610   50.8960   85.9390 N.am  287  ASN287     -0.0877
     87  N         35.6360   50.6170   86.4700 N.3   289  LEU289     -0.1231
     88  CA        36.6420   50.2410   85.4560 C.3   289  LEU289      0.1693
     89  C         36.4080   50.9800   84.1380 C.2   289  LEU289      0.2592
     90  O         37.3460   51.5820   83.5690 O.2   289  LEU289     -0.2718
     91  CB        36.6070   48.7240   85.1320 C.3   289  LEU289      0.0284
     92  CG        37.1100   47.7670   86.2120 C.3   289  LEU289      0.0019
     93  CD1       36.7890   46.2360   85.8720 C.3   289  LEU289      0.0001
     94  CD2       38.6000   47.9060   86.4870 C.3   289  LEU289      0.0001
     95  N         35.1670   50.9060   83.6600 N.am  290  ASN290     -0.1974
     96  CA        34.8120   51.5980   82.3950 C.3   290  ASN290      0.1688
     97  C         35.1790   53.0830   82.4710 C.2   290  ASN290      0.2292
     98  O         35.7850   53.6720   81.5090 O.2   290  ASN290     -0.2864
     99  CB        33.3160   51.4670   82.0730 C.3   290  ASN290      0.1181
    100  CG        32.8930   50.0230   81.8200 C.2   290  ASN290      0.2629
    101  OD1       33.7160   49.1630   81.4800 O.2   290  ASN290     -0.2716
    102  ND2       31.6140   49.7730   81.9860 N.am  290  ASN290     -0.0877
    103  N         21.3000   50.7200   80.3150 N.3   321  ARG321     -0.1245
    104  CA        22.3880   50.1990   81.1770 C.3   321  ARG321      0.1563
    105  C         22.0590   50.6720   82.6040 C.2   321  ARG321      0.2260
    106  O         22.2550   51.8260   82.9300 O.2   321  ARG321     -0.2867
    107  CB        23.8090   50.6810   80.7140 C.3   321  ARG321      0.0307
    108  CG        24.3650   49.9030   79.5090 C.3   321  ARG321      0.0489
    109  CD        23.5180   49.9860   78.2330 C.3   321  ARG321      0.2205
    110  NE        24.1380   49.2780   77.1090 N.pl3 321  ARG321     -0.0865
    111  CZ        23.5990   49.1320   75.9050 C.cat 321  ARG321      0.5346
    112  NH1       22.3960   49.6440   75.6120 N.pl3 321  ARG321      0.1354
    113  NH2       24.2660   48.4700   74.9380 N.pl3 321  ARG321      0.1354
    114  N         18.0780   46.5700   82.4780 N.3   340  ASP340     -0.1225
    115  CA        19.5190   46.3760   82.2470 C.3   340  ASP340      0.1805
    116  C         19.7970   45.4880   81.0470 C.2   340  ASP340      0.2598
    117  O         19.1860   44.4620   80.8900 O.2   340  ASP340     -0.2718
    118  CB        20.3020   45.9000   83.4750 C.3   340  ASP340      0.1424
    119  CG        21.7860   45.9880   83.2190 C.2   340  ASP340      0.3668
    120  OD1       22.2910   47.1480   83.1260 O.co2 340  ASP340     -0.2456
    121  OD2       22.4820   44.9590   83.0940 O.co2 340  ASP340     -0.2456
    122  N         20.7750   45.8880   80.2240 N.am  341  TYR341     -0.1962
    123  CA        21.0660   45.2450   78.9390 C.3   341  TYR341      0.1771
    124  C         21.8510   43.9590   79.0680 C.2   341  TYR341      0.2620
    125  O         21.9390   43.1950   78.0630 O.2   341  TYR341     -0.2715
    126  CB        21.8490   46.2450   78.0150 C.3   341  TYR341      0.0574
    127  CG        21.9560   45.9020   76.5600 C.ar  341  TYR341     -0.0198
    128  CD1       23.1390   45.3650   76.0400 C.ar  341  TYR341     -0.0009
    129  CD2       20.8800   46.1020   75.6860 C.ar  341  TYR341     -0.0009
    130  CE1       23.2420   45.0300   74.6590 C.ar  341  TYR341      0.0417
    131  CE2       20.9590   45.7690   74.3260 C.ar  341  TYR341      0.0417
    132  CZ        22.1570   45.2350   73.8200 C.ar  341  TYR341      0.1957
    133  OH        22.2550   44.9140   72.4930 O.3   341  TYR341     -0.2866
    134  N         22.4240   43.6990   80.2420 N.am  342  GLY342     -0.1940
    135  CA        23.3470   42.5740   80.3790 C.3   342  GLY342      0.2014
    136  C         22.7260   41.2750   79.8810 C.2   342  GLY342      0.2638
    137  O         21.6210   40.9810   80.2990 O.2   342  GLY342     -0.2714
    138  N         23.4390   40.5360   79.0310 N.am  343  HIS343     -0.1973
    139  CA        22.8960   39.3070   78.4310 C.3   343  HIS343      0.1656
    140  C         23.8080   38.1070   78.6520 C.2   343  HIS343      0.2291
    141  O         23.3790   36.9590   78.6510 O.2   343  HIS343     -0.2864
    142  CB        22.5900   39.5660   76.9640 C.3   343  HIS343      0.0771
    143  CG        23.7560   40.1330   76.1920 C.ar  343  HIS343      0.0820
    144  ND1       24.7650   39.3420   75.7050 N.ar  343  HIS343     -0.2267
    145  CD2       24.0560   41.4060   75.8190 C.ar  343  HIS343      0.1154
    146  CE1       25.6440   40.0970   75.0490 C.ar  343  HIS343      0.1986
    147  NE2       25.2380   41.3550   75.1010 N.ar  343  HIS343     -0.2212
    148  N         28.2300   36.9650   82.9500 N.3   346  THR346     -0.1203
    149  CA        29.0700   37.9010   83.6850 C.3   346  THR346      0.1994
    150  C         28.3950   39.2100   83.7590 C.2   346  THR346      0.2617
    151  O         28.4600   39.8610   84.7830 O.2   346  THR346     -0.2717
    152  CB        30.4440   38.0530   83.0210 C.3   346  THR346      0.1784
    153  OG1       31.1570   36.8090   83.1310 O.3   346  THR346     -0.2211
    154  CG2       31.3410   39.1280   83.7580 C.3   346  THR346      0.0376
    155  N         27.7600   39.6290   82.7170 N.am  347  GLU347     -0.1979
    156  CA        27.1360   40.9510   82.7590 C.3   347  GLU347      0.1602
    157  C         25.9350   40.9310   83.7070 C.2   347  GLU347      0.2287
    158  O         25.6620   41.9030   84.4510 O.2   347  GLU347     -0.2864
    159  CB        26.6900   41.3450   81.3310 C.3   347  GLU347      0.0415
    160  CG        27.8330   41.3820   80.3290 C.3   347  GLU347      0.1163
    161  CD        27.4130   41.4420   78.8850 C.2   347  GLU347      0.3649
    162  OE1       26.1960   41.2410   78.5460 O.co2 347  GLU347     -0.2457
    163  OE2       28.3220   41.6610   78.0660 O.co2 347  GLU347     -0.2457
    164  N         27.3940   41.0660   87.3850 N.3   350  VAL350     -0.1185
    165  CA        27.8790   42.3560   87.8070 C.3   350  VAL350      0.1876
    166  C         26.7030   43.3170   88.1380 C.2   350  VAL350      0.2632
    167  O         26.7840   44.1220   89.0970 O.2   350  VAL350     -0.2714
    168  CB        28.8120   42.7810   86.6430 C.2   350  VAL350     -0.0180
    169  CG1       28.7390   44.0110   86.2840 C.2   350  VAL350     -0.0072
    170  CG2       30.2470   42.1150   86.8130 C.3   350  VAL350      0.0283
    171  N         25.6260   43.1870   87.3920 N.am  351  THR351     -0.1950
    172  CA        24.4010   43.9810   87.5490 C.3   351  THR351      0.1897
    173  C         23.7130   43.6840   88.8750 C.2   351  THR351      0.2313
    174  O         23.3810   44.6130   89.6260 O.2   351  THR351     -0.2863
    175  CB        23.4440   43.8040   86.3710 C.3   351  THR351      0.1794
    176  OG1       23.9760   44.5500   85.2710 O.3   351  THR351     -0.2208
    177  CG2       22.1900   44.6610   86.6310 C.3   351  THR351      0.0378
@<TRIPOS>BOND
     1    48    47    2
     2    47    46    1
     3    45    46    1
     4    46    49    1
     5    49    50    1
     6    50    51    1
     7    51    52   ar
     8    51    53   ar
     9    29    28    1
    10    29    30    1
    11    28    27    1
    12   133   132    1
    13    36    35    1
    14    27    26    1
    15    26    23    1
    16   132   131   ar
    17   132   130   ar
    18   131   129   ar
    19   130   128   ar
    20    35    37    1
    21    35    32    1
    22    32    31    1
    23    32    33    1
    24    25    24    2
    25   113   111    1
    26    31    24   am
    27    24    23    1
    28   146   147   ar
    29   146   144   ar
    30    23    22    1
    31   147   145   ar
    32     1     2    1
    33     2     3    1
    34     2     5    1
    35     4     3    2
    36   112   111    1
    37   129   127   ar
    38   144   143   ar
    39    34    33    2
    40   145   143   ar
    41   111   110    2
    42     6     5    1
    43    33    38   am
    44   128   127   ar
    45     3     8   am
    46   143   142    1
    47    22    20   am
    48     7     5    1
    49    64    63    2
    50   127   126    1
    51    54    55    1
    52   142   139    1
    53   110   109    1
    54     8     9    1
    55    38    39    1
    56    59    58    1
    57    20    21    2
    58    20    19    1
    59    63    62    1
    60    60    58    1
    61     9    10    1
    62     9    12    1
    63   126   123    1
    64   125   124    2
    65   163   161   ar
    66    61    62    1
    67    61    56   am
    68    10    18   am
    69    10    11    2
    70    55    58    1
    71    55    56    1
    72   109   108    1
    73    18    19    1
    74    40    39    1
    75    40    41    2
    76    39    42    1
    77    67    66    2
    78   139   140    1
    79   139   138    1
    80   162   161   ar
    81   141   140    2
    82    62    65    1
    83    14    16   ar
    84    14    13   ar
    85    56    57    2
    86   161   160    1
    87   123   124    1
    88   123   122    1
    89   138   136   am
    90    16    17   ar
    91   124   134   am
    92    12    13    1
    93    66    65    1
    94    66    68   am
    95    13    15   ar
    96   108   107    1
    97    42    43    1
    98    42    44    1
    99    17    15   ar
   100   136   137    2
   101   136   135    1
   102   122   116   am
   103   134   135    1
   104   103   104    1
   105   160   159    1
   106   107   104    1
   107   117   116    2
   108   116   115    1
   109   104   105    1
   110   159   156    1
   111   101   100    2
   112    98    97    2
   113   100   102   am
   114   100    99    1
   115    99    96    1
   116   115   114    1
   117   115   118    1
   118    96    97    1
   119    96    95    1
   120   105   106    2
   121   155   156    1
   122   155   150   am
   123   156   157    1
   124   148   149    1
   125   152   153    1
   126   152   149    1
   127   152   154    1
   128   121   119   ar
   129   120   119   ar
   130   119   118    1
   131    90    89    2
   132    95    89   am
   133   149   150    1
   134   157   158    2
   135   150   151    2
   136    89    88    1
   137    85    84    2
   138    72    71    2
   139    91    88    1
   140    91    92    1
   141   176   175    1
   142    84    86   am
   143    84    83    1
   144    76    78   ar
   145    76    74   ar
   146    88    87    1
   147    82    81    2
   148    93    92    1
   149    80    83    1
   150    80    81    1
   151    80    79    1
   152    71    79   am
   153    71    70    1
   154    78    77   ar
   155    73    74    1
   156    73    70    1
   157    92    94    1
   158    74    75   ar
   159   169   168    2
   160   175   177    1
   161   175   172    1
   162   168   170    1
   163   168   165    1
   164    70    69    1
   165    77    75   ar
   166   164   165    1
   167   171   172    1
   168   171   166   am
   169   172   173    1
   170   165   166    1
   171   166   167    2
   172   173   174    2
