@<TRIPOS>MOLECULE
tmp/1graA01.pdb
 162 158 0 0 0
SMALL
GASTEIGER

@<TRIPOS>ATOM
      1  N         65.0770   68.2730   11.4390 N.2   146  PRO146     -0.2584
      2  CA        65.1440   69.7030   11.6340 C.3   146  PRO146      0.1895
      3  C         63.9060   70.3830   11.0810 C.2   146  PRO146      0.2359
      4  O         63.2070   69.8670   10.1880 O.2   146  PRO146     -0.2858
      5  CB        66.4060   70.1920   10.9130 C.2   146  PRO146      0.0071
      6  CG        67.1380   68.9630   10.3920 C.2   146  PRO146      0.0180
      7  CD        66.2520   67.7660   10.6800 C.2   146  PRO146      0.0937
      8  N         64.7250   76.4180   10.7550 N.3   150  GLN150     -0.1245
      9  CA        66.1640   76.5360   10.9930 C.3   150  GLN150      0.1566
     10  C         67.0110   76.0210    9.8210 C.2   150  GLN150      0.2260
     11  O         68.0970   76.5220    9.5960 O.2   150  GLN150     -0.2867
     12  CB        66.6530   76.0600   12.3780 C.3   150  GLN150      0.0367
     13  CG        66.9040   74.5350   12.4450 C.3   150  GLN150      0.0905
     14  CD        68.1720   74.0830   13.1850 C.2   150  GLN150      0.2608
     15  OE1       68.0910   73.3480   14.1830 O.2   150  GLN150     -0.2717
     16  NE2       69.3460   74.3500   12.6000 N.am  150  GLN150     -0.0878
     17  N         73.8040   62.8650    7.8170 N.3   176  VAL176     -0.1231
     18  CA        74.0790   63.8830    8.8000 C.3   176  VAL176      0.1692
     19  C         73.8970   63.3310   10.2160 C.2   176  VAL176      0.2593
     20  O         72.8150   62.8780   10.5610 O.2   176  VAL176     -0.2718
     21  CB        73.1770   65.0940    8.6250 C.3   176  VAL176      0.0266
     22  CG1       73.5960   66.1220    9.6680 C.3   176  VAL176      0.0020
     23  CG2       73.2980   65.6710    7.2120 C.3   176  VAL176      0.0020
     24  N         74.9430   63.3820   11.0330 N.am  177  GLY177     -0.1942
     25  CA        74.8420   62.9500   12.4210 C.3   177  GLY177      0.2014
     26  C         76.0550   62.1320   12.7710 C.2   177  GLY177      0.2639
     27  O         76.7770   61.6780   11.9020 O.2   177  GLY177     -0.2714
     28  N         76.2980   61.9330   14.0580 N.am  178  ALA178     -0.1963
     29  CA        77.5010   61.2490   14.4400 C.3   178  ALA178      0.1728
     30  C         77.3150   60.1620   15.4800 C.2   178  ALA178      0.2617
     31  O         78.2820   59.8050   16.1420 O.2   178  ALA178     -0.2715
     32  CB        78.4100   62.3020   15.0280 C.3   178  ALA178      0.0334
     33  N         76.0820   59.6930   15.6490 N.am  179  GLY179     -0.1940
     34  CA        75.7770   58.6630   16.6310 C.3   179  GLY179      0.2014
     35  C         75.7350   57.2970   15.9660 C.2   179  GLY179      0.2639
     36  O         76.0840   57.1770   14.8060 O.2   179  GLY179     -0.2714
     37  N         75.3000   56.2600   16.6920 N.am  180  TYR180     -0.1959
     38  CA        75.3220   54.9210   16.1090 C.3   180  TYR180      0.1771
     39  C         74.5530   54.7210   14.7690 C.2   180  TYR180      0.2619
     40  O         75.0200   54.0370   13.8510 O.2   180  TYR180     -0.2715
     41  CB        75.1190   53.7970   17.1560 C.3   180  TYR180      0.0574
     42  CG        73.6780   53.3480   17.3590 C.ar  180  TYR180     -0.0198
     43  CD1       72.8730   54.0130   18.2690 C.ar  180  TYR180     -0.0009
     44  CD2       73.1380   52.2630   16.6630 C.ar  180  TYR180     -0.0009
     45  CE1       71.5570   53.6160   18.4970 C.ar  180  TYR180      0.0417
     46  CE2       71.8130   51.8810   16.8350 C.ar  180  TYR180      0.0417
     47  CZ        71.0370   52.5370   17.7940 C.ar  180  TYR180      0.1957
     48  OH        69.7280   52.1620   18.0330 O.3   180  TYR180     -0.2866
     49  N         73.3470   55.2770   14.6500 N.am  181  ILE181     -0.1977
     50  CA        72.5370   55.0800   13.4600 C.3   181  ILE181      0.1596
     51  C         73.2250   55.6940   12.2410 C.2   181  ILE181      0.2287
     52  O         73.3440   55.0620   11.1900 O.2   181  ILE181     -0.2864
     53  CB        71.1450   55.6180   13.7070 C.3   181  ILE181      0.0276
     54  CG1       70.4190   54.6770   14.6810 C.3   181  ILE181      0.0022
     55  CG2       70.3720   55.7730   12.4030 C.3   181  ILE181      0.0022
     56  CD1       69.1900   55.2980   15.3560 C.3   181  ILE181      0.0001
     57  N         78.4180   63.6480    7.4560 N.3   199  MET199     -0.1245
     58  CA        78.6360   65.0000    7.9180 C.3   199  MET199      0.1570
     59  C         78.4310   65.1480    9.4370 C.2   199  MET199      0.2261
     60  O         77.3440   65.0070    9.9550 O.2   199  MET199     -0.2867
     61  CB        77.7870   65.9430    7.0490 C.3   199  MET199      0.0387
     62  CG        78.2110   67.3940    7.1730 C.3   199  MET199      0.0595
     63  SD        76.8960   68.5070    6.6330 S.3   199  MET199     -0.1393
     64  CE        76.6910   67.8570    4.9650 C.3   199  MET199      0.0692
     65  N         79.3700   67.3060   13.2610 N.3   201  ARG201     -0.1231
     66  CA        79.6080   68.6260   13.8040 C.3   201  ARG201      0.1694
     67  C         80.9900   68.7840   14.4010 C.2   201  ARG201      0.2592
     68  O         81.4280   69.9080   14.5920 O.2   201  ARG201     -0.2718
     69  CB        78.5880   68.9820   14.8480 C.3   201  ARG201      0.0321
     70  CG        77.1980   69.0700   14.2600 C.3   201  ARG201      0.0489
     71  CD        76.2190   69.5920   15.2980 C.3   201  ARG201      0.2205
     72  NE        76.3420   68.8290   16.5410 N.pl3 201  ARG201     -0.0865
     73  CZ        75.4270   68.7790   17.5290 C.cat 201  ARG201      0.5346
     74  NH1       74.3140   69.5180   17.4380 N.pl3 201  ARG201      0.1354
     75  NH2       75.6360   68.0600   18.6450 N.pl3 201  ARG201      0.1354
     76  N         81.6490   67.6950   14.7980 N.am  202  HIS202     -0.1976
     77  CA        82.9770   67.8360   15.3810 C.3   202  HIS202      0.1656
     78  C         83.9730   67.0790   14.5460 C.2   202  HIS202      0.2291
     79  O         83.8390   67.0450   13.3360 O.2   202  HIS202     -0.2864
     80  CB        83.0480   67.4340   16.8650 C.3   202  HIS202      0.0771
     81  CG        82.1040   68.2260   17.7030 C.ar  202  HIS202      0.0820
     82  ND1       82.5640   69.2030   18.5840 N.ar  202  HIS202     -0.2267
     83  CD2       80.7460   68.1770   17.7980 C.ar  202  HIS202      0.1154
     84  CE1       81.4930   69.7380   19.1540 C.ar  202  HIS202      0.1986
     85  NE2       80.3900   69.1310   18.7180 N.ar  202  HIS202     -0.2212
     86  N         85.1210   63.6820   15.3250 N.3   204  LYS204     -0.1245
     87  CA        84.9560   62.2450   15.4860 C.3   204  LYS204      0.1561
     88  C         83.5010   61.8830   15.6530 C.2   204  LYS204      0.2260
     89  O         82.6860   62.7120   16.0400 O.2   204  LYS204     -0.2867
     90  CB        85.6950   61.7510   16.7030 C.3   204  LYS204      0.0271
     91  CG        87.1820   61.8540   16.4790 C.3   204  LYS204      0.0035
     92  CD        87.9440   61.9840   17.7820 C.3   204  LYS204      0.0206
     93  CE        89.4500   61.8120   17.5730 C.3   204  LYS204      0.1093
     94  NZ        90.2430   61.9800   18.8030 N.3   204  LYS204     -0.1314
     95  N         81.2250   60.2790   19.8340 N.3   207  ARG207     -0.1245
     96  CA        82.0010   61.0060   20.8180 C.3   207  ARG207      0.1563
     97  C         81.6690   60.6610   22.2760 C.2   207  ARG207      0.2260
     98  O         82.4530   60.9480   23.1780 O.2   207  ARG207     -0.2867
     99  CB        81.9820   62.5090   20.5340 C.3   207  ARG207      0.0307
    100  CG        82.7530   62.8760   19.2510 C.3   207  ARG207      0.0489
    101  CD        82.8300   64.3870   19.0470 C.3   207  ARG207      0.2205
    102  NE        81.5750   64.9900   19.4940 N.pl3 207  ARG207     -0.0865
    103  CZ        81.4320   65.8150   20.5370 C.cat 207  ARG207      0.5346
    104  NH1       82.5170   66.2280   21.1730 N.pl3 207  ARG207      0.1354
    105  NH2       80.2470   66.2770   20.9490 N.pl3 207  ARG207      0.1354
    106  N         81.2300   70.2100   10.1420 N.3   232  SER232     -0.1202
    107  CA        80.3550   70.7060    9.0960 C.3   232  SER232      0.2020
    108  C         78.9130   70.5380    9.4800 C.2   232  SER232      0.2618
    109  O         78.5730   69.5890   10.1740 O.2   232  SER232     -0.2717
    110  CB        80.6210   70.0100    7.7860 C.3   232  SER232      0.2103
    111  OG        82.0100   70.0800    7.5050 O.3   232  SER232     -0.2182
    112  N         78.0590   71.4490    9.0070 N.am  233  GLN233     -0.1979
    113  CA        76.6330   71.3350    9.2320 C.3   233  GLN233      0.1601
    114  C         75.8550   71.8800    8.0610 C.2   233  GLN233      0.2287
    115  O         76.3540   72.6350    7.2290 O.2   233  GLN233     -0.2864
    116  CB        76.1030   71.7070   10.6300 C.3   233  GLN233      0.0394
    117  CG        76.3190   73.1760   10.9770 C.3   233  GLN233      0.0908
    118  CD        76.0820   73.5090   12.4440 C.2   233  GLN233      0.2608
    119  OE1       76.6880   72.9090   13.3510 O.2   233  GLN233     -0.2717
    120  NE2       75.3170   74.5870   12.6580 N.am  233  GLN233     -0.0878
    121  N         68.9490   62.2650    7.5490 N.3   270  TRP270     -0.1227
    122  CA        69.0930   62.8830    8.8630 C.3   270  TRP270      0.1737
    123  C         69.2110   61.8000    9.9350 C.2   270  TRP270      0.2595
    124  O         68.2840   61.0240   10.1490 O.2   270  TRP270     -0.2718
    125  CB        67.8740   63.7660    9.1960 C.3   270  TRP270      0.0564
    126  CG        67.6770   64.9510    8.3040 C.ar  270  TRP270      0.0003
    127  CD1       66.6200   65.1610    7.4840 C.ar  270  TRP270      0.0946
    128  CD2       68.4920   66.1320    8.2200 C.ar  270  TRP270      0.0152
    129  NE1       66.7560   66.3570    6.8430 N.ar  270  TRP270     -0.2442
    130  CE2       67.8970   66.9700    7.2650 C.ar  270  TRP270      0.0810
    131  CE3       69.6780   66.5370    8.8440 C.ar  270  TRP270      0.0012
    132  CZ2       68.4540   68.1930    6.8970 C.ar  270  TRP270      0.0191
    133  CZ3       70.2120   67.7550    8.5060 C.ar  270  TRP270      0.0001
    134  CH2       69.5970   68.5710    7.5510 C.ar  270  TRP270      0.0015
    135  N         70.3250   61.7580   10.6620 N.am  271  ALA271     -0.1966
    136  CA        70.4790   60.7990   11.7460 C.3   271  ALA271      0.1728
    137  C         70.9720   61.5290   12.9690 C.2   271  ALA271      0.2616
    138  O         72.0360   61.2250   13.5170 O.2   271  ALA271     -0.2715
    139  CB        71.4010   59.6660   11.3650 C.3   271  ALA271      0.0334
    140  N         70.1650   62.5070   13.3480 N.am  272  ILE272     -0.1963
    141  CA        70.4890   63.4420   14.4060 C.3   272  ILE272      0.1727
    142  C         69.9520   63.1330   15.7940 C.2   272  ILE272      0.2617
    143  O         70.4080   63.7360   16.7450 O.2   272  ILE272     -0.2715
    144  CB        70.2990   64.9040   13.9790 C.3   272  ILE272      0.0290
    145  CG1       68.8240   65.2360   13.7300 C.3   272  ILE272      0.0022
    146  CG2       71.0930   65.1760   12.7000 C.3   272  ILE272      0.0023
    147  CD1       68.5650   66.7350   13.5460 C.3   272  ILE272      0.0001
    148  N         69.0650   62.1520   15.9510 N.am  273  GLY273     -0.1940
    149  CA        68.5360   61.7790   17.2730 C.3   273  GLY273      0.2014
    150  C         67.0990   61.2590   17.1820 C.2   273  GLY273      0.2638
    151  O         66.5630   61.0080   16.0900 O.2   273  GLY273     -0.2714
    152  N         66.4660   61.0650   18.3360 N.am  274  ARG274     -0.1977
    153  CA        65.1110   60.5140   18.3590 C.3   274  ARG274      0.1597
    154  C         64.2870   61.3090   19.3250 C.2   274  ARG274      0.2287
    155  O         64.7720   61.7040   20.3770 O.2   274  ARG274     -0.2864
    156  CB        65.1010   59.0770   18.8460 C.3   274  ARG274      0.0334
    157  CG        66.1480   58.2110   18.1640 C.3   274  ARG274      0.0492
    158  CD        65.5690   57.3300   17.0700 C.3   274  ARG274      0.2205
    159  NE        64.4250   56.5520   17.5540 N.pl3 274  ARG274     -0.0865
    160  CZ        63.4830   56.0990   16.7420 C.cat 274  ARG274      0.5346
    161  NH1       63.6280   56.3100   15.4400 N.pl3 274  ARG274      0.1354
    162  NH2       62.4170   55.4330   17.1750 N.pl3 274  ARG274      0.1354
@<TRIPOS>BOND
     1    64    63    1
     2    63    62    1
     3   129   130   ar
     4   129   127   ar
     5   132   130   ar
     6   132   134   ar
     7    61    62    1
     8    61    58    1
     9    23    21    1
    10   115   114    2
    11   130   128   ar
    12    57    58    1
    13   127   126   ar
    14   111   110    1
    15   121   122    1
    16   134   133   ar
    17   110   107    1
    18    17    18    1
    19    58    59    1
    20   114   113    1
    21   128   126   ar
    22   128   131   ar
    23   126   125    1
    24   133   131   ar
    25    21    18    1
    26    21    22    1
    27    18    19    1
    28   122   125    1
    29   122   123    1
    30   112   113    1
    31   112   108   am
    32   107   108    1
    33   107   106    1
    34   113   116    1
    35    59    60    2
    36   108   109    2
    37    11    10    2
    38    10     9    1
    39   123   124    2
    40   123   135   am
    41     4     3    2
    42    19    20    2
    43    19    24   am
    44     6     7    1
    45     6     5    2
    46   116   117    1
    47   135   136    1
    48     7     1    2
    49     8     9    1
    50     5     2    1
    51   117   118    1
    52     9    12    1
    53    24    25    1
    54     3     2    1
    55    52    51    2
    56   139   136    1
    57     1     2    1
    58   136   137    1
    59    27    26    2
    60    51    50    1
    61    12    13    1
    62    55    53    1
    63    25    26    1
    64   118   120   am
    65   118   119    2
    66    13    14    1
    67    16    14   am
    68   146   144    1
    69    26    28   am
    70   137   140   am
    71   137   138    2
    72    14    15    2
    73    65    66    1
    74    79    78    2
    75   140   141    1
    76    50    53    1
    77    50    49    1
    78   147   145    1
    79    53    54    1
    80   145   144    1
    81    66    67    1
    82    66    69    1
    83    40    39    2
    84   144   141    1
    85    28    29    1
    86    70    69    1
    87    70    71    1
    88    67    68    2
    89    67    76   am
    90   141   142    1
    91    29    32    1
    92    29    30    1
    93    78    77    1
    94    49    39   am
    95    54    56    1
    96    39    38    1
    97    76    77    1
    98    36    35    2
    99    71    72    1
   100    86    87    1
   101    77    80    1
   102   161   160    1
   103    30    33   am
   104    30    31    2
   105    87    88    1
   106    87    90    1
   107    33    34    1
   108    88    89    2
   109   142   148   am
   110   142   143    2
   111   148   149    1
   112    35    34    1
   113    35    37   am
   114   151   150    2
   115    38    37    1
   116    38    41    1
   117    91    90    1
   118    91    92    1
   119    72    73    2
   120    44    46   ar
   121    44    42   ar
   122   160   162    1
   123   160   159    2
   124    46    47   ar
   125    80    81    1
   126   158   159    1
   127   158   157    1
   128    41    42    1
   129   150   149    1
   130   150   152   am
   131    42    43   ar
   132    74    73    1
   133    73    75    1
   134    93    92    1
   135    93    94    1
   136    81    83   ar
   137    81    82   ar
   138    47    48    1
   139    47    45   ar
   140    83    85   ar
   141   157   156    1
   142    43    45   ar
   143   152   153    1
   144   153   156    1
   145   153   154    1
   146    82    84   ar
   147    85    84   ar
   148   101   100    1
   149   101   102    1
   150   100    99    1
   151   154   155    2
   152   102   103    2
   153    95    96    1
   154    99    96    1
   155   103   105    1
   156   103   104    1
   157    96    97    1
   158    97    98    2
