@<TRIPOS>MOLECULE
tmp/1grqA00.pdb
 171 158 0 0 0
SMALL
GASTEIGER

@<TRIPOS>ATOM
      1  N         19.0640   44.6590   36.4270 N.3    11  GLY11      -0.1210
      2  CA        19.2360   45.7730   35.5260 C.3    11  GLY11       0.1956
      3  C         18.0740   45.8110   34.5570 C.2    11  GLY11       0.2613
      4  O         17.2200   44.9290   34.5600 O.2    11  GLY11      -0.2717
      5  N         18.0400   46.8520   33.7370 N.am   12  SER12      -0.1938
      6  CA        16.9980   47.0080   32.7480 C.3    12  SER12       0.2055
      7  C         17.1910   45.9540   31.6690 C.2    12  SER12       0.2644
      8  O         18.3200   45.6280   31.2990 O.2    12  SER12      -0.2714
      9  CB        17.0820   48.3950   32.1340 C.3    12  SER12       0.2130
     10  OG        16.1780   48.5030   31.0530 O.3    12  SER12      -0.2179
     11  N         16.0800   45.4350   31.1600 N.am   13  SER13      -0.1935
     12  CA        16.0970   44.3970   30.1300 C.3    13  SER13       0.2055
     13  C         16.7040   43.0870   30.6280 C.2    13  SER13       0.2642
     14  O         16.9560   42.1770   29.8410 O.2    13  SER13      -0.2714
     15  CB        16.8490   44.8780   28.8880 C.3    13  SER13       0.2130
     16  OG        16.1350   45.9230   28.2550 O.3    13  SER13      -0.2179
     17  N         16.9320   42.9910   31.9330 N.am   14  ALA14      -0.1977
     18  CA        17.4880   41.7810   32.5060 C.3    14  ALA14       0.1597
     19  C         16.4530   40.6630   32.4460 C.2    14  ALA14       0.2287
     20  O         16.7880   39.4980   32.6380 O.2    14  ALA14      -0.2864
     21  CB        17.9160   42.0240   33.9400 C.3    14  ALA14       0.0319
     22  N         13.2430   40.9020   34.1850 N.3    16  LYS16      -0.1231
     23  CA        12.3520   40.9260   35.3430 C.3    16  LYS16       0.1693
     24  C         10.8550   40.8340   35.0850 C.2    16  LYS16       0.2592
     25  O         10.1880   39.9800   35.6500 O.2    16  LYS16      -0.2718
     26  CB        12.6240   42.1550   36.1860 C.3    16  LYS16       0.0285
     27  CG        14.0050   42.1690   36.7830 C.3    16  LYS16       0.0035
     28  CD        14.0740   43.1440   37.9390 C.3    16  LYS16       0.0206
     29  CE        13.8870   44.5770   37.4650 C.3    16  LYS16       0.1093
     30  NZ        14.9990   44.9100   36.5540 N.3    16  LYS16      -0.1314
     31  N         10.3120   41.7070   34.2460 N.am   17  SER17      -0.1952
     32  CA         8.8750   41.6790   33.9720 C.3    17  SER17       0.1924
     33  C          8.3480   40.3180   33.5700 C.2    17  SER17       0.2314
     34  O          7.3410   39.8620   34.1080 O.2    17  SER17      -0.2863
     35  CB         8.5190   42.6930   32.8950 C.3    17  SER17       0.2116
     36  OG         8.6640   44.0030   33.4100 O.3    17  SER17      -0.2180
     37  N          8.7420   48.9970   39.8850 N.3    36  VAL36      -0.1231
     38  CA         9.0970   50.3960   39.9340 C.3    36  VAL36       0.1692
     39  C          8.4680   51.1030   38.7410 C.2    36  VAL36       0.2592
     40  O          8.2820   52.3130   38.7630 O.2    36  VAL36      -0.2718
     41  CB        10.6190   50.5840   39.8930 C.3    36  VAL36       0.0266
     42  CG1       11.1860   50.0170   38.6000 C.3    36  VAL36       0.0020
     43  CG2       10.9510   52.0480   40.0410 C.3    36  VAL36       0.0020
     44  N          8.1420   50.3460   37.6970 N.am   37  ASP37      -0.1974
     45  CA         7.5170   50.9240   36.5110 C.3    37  ASP37       0.1709
     46  C          6.1000   51.3570   36.8440 C.2    37  ASP37       0.2293
     47  O          5.6620   52.4300   36.4330 O.2    37  ASP37      -0.2864
     48  CB         7.4760   49.9240   35.3530 C.3    37  ASP37       0.1436
     49  CG         8.8480   49.6200   34.7930 C.2    37  ASP37       0.3671
     50  OD1        9.6490   50.5620   34.6270 O.co2  37  ASP37      -0.2456
     51  OD2        9.1220   48.4400   34.5050 O.co2  37  ASP37      -0.2456
     52  N          6.3060   54.6710   38.6940 N.3    40  ILE40      -0.1245
     53  CA         6.5460   55.7680   37.7550 C.3    40  ILE40       0.1561
     54  C          5.2220   56.1830   37.1070 C.2    40  ILE40       0.2260
     55  O          4.9640   57.3610   36.8700 O.2    40  ILE40      -0.2867
     56  CB         7.4970   55.3390   36.6090 C.3    40  ILE40       0.0252
     57  CG1        8.8240   54.8150   37.1640 C.3    40  ILE40       0.0019
     58  CG2        7.7360   56.5060   35.6780 C.3    40  ILE40       0.0019
     59  CD1        9.7760   55.8680   37.6640 C.3    40  ILE40       0.0001
     60  N         12.5730   61.7550   38.8910 N.3    54  ILE54      -0.1245
     61  CA        13.3980   61.0290   37.9090 C.3    54  ILE54       0.1561
     62  C         13.6740   61.6900   36.5320 C.2    54  ILE54       0.2260
     63  O         12.7750   62.2860   35.9380 O.2    54  ILE54      -0.2867
     64  CB        12.7690   59.6640   37.6510 C.3    54  ILE54       0.0252
     65  CG1       13.5570   58.8800   36.6030 C.3    54  ILE54       0.0019
     66  CG2       11.3090   59.8080   37.2250 C.3    54  ILE54       0.0019
     67  CD1       13.1110   57.4450   36.4510 C.3    54  ILE54       0.0001
     68  N         15.9520   60.8680   32.7290 N.3    56  PHE56      -0.1241
     69  CA        16.7930   59.9850   31.8930 C.3    56  PHE56       0.1605
     70  C         17.7770   60.6880   30.9380 C.2    56  PHE56       0.2264
     71  O         17.3640   61.3390   29.9840 O.2    56  PHE56      -0.2867
     72  CB        15.9200   59.0410   31.0460 C.3    56  PHE56       0.0534
     73  CG        14.7450   58.4490   31.7850 C.ar   56  PHE56      -0.0203
     74  CD1       13.6040   59.2140   32.0450 C.ar   56  PHE56      -0.0042
     75  CD2       14.7660   57.1210   32.2020 C.ar   56  PHE56      -0.0042
     76  CE1       12.4940   58.6620   32.7080 C.ar   56  PHE56      -0.0003
     77  CE2       13.6660   56.5580   32.8650 C.ar   56  PHE56      -0.0003
     78  CZ        12.5270   57.3340   33.1160 C.ar   56  PHE56      -0.0000
     79  N         20.1760   57.4020   34.5290 N.3    62  VAL62      -0.1245
     80  CA        19.0210   57.6990   35.3810 C.3    62  VAL62       0.1561
     81  C         19.4470   58.3440   36.7000 C.2    62  VAL62       0.2260
     82  O         20.3860   57.8820   37.3530 O.2    62  VAL62      -0.2867
     83  CB        18.1980   56.4050   35.7030 C.3    62  VAL62       0.0252
     84  CG1       17.1900   56.6770   36.8150 C.3    62  VAL62       0.0019
     85  CG2       17.4600   55.9240   34.4570 C.3    62  VAL62       0.0019
     86  N         17.7790   60.1330   40.4120 N.3    64  ILE64      -0.1245
     87  CA        16.6030   60.2900   41.2600 C.3    64  ILE64       0.1561
     88  C         16.7310   61.4410   42.2650 C.2    64  ILE64       0.2260
     89  O         17.6650   61.4700   43.0760 O.2    64  ILE64      -0.2867
     90  CB        16.3420   58.9780   42.0500 C.3    64  ILE64       0.0252
     91  CG1       16.2490   57.7860   41.0840 C.3    64  ILE64       0.0019
     92  CG2       15.0850   59.1160   42.9090 C.3    64  ILE64       0.0019
     93  CD1       15.1280   57.8770   40.0380 C.3    64  ILE64       0.0001
     94  N         11.0520   62.6240   44.2720 N.3    68  PHE68      -0.1241
     95  CA        10.8120   61.2420   43.9020 C.3    68  PHE68       0.1605
     96  C         11.0410   60.2900   45.0690 C.2    68  PHE68       0.2264
     97  O         10.2060   59.4300   45.3480 O.2    68  PHE68      -0.2867
     98  CB        11.7250   60.8590   42.7370 C.3    68  PHE68       0.0534
     99  CG        11.5180   59.4540   42.2380 C.ar   68  PHE68      -0.0203
    100  CD1       11.8720   58.3570   43.0240 C.ar   68  PHE68      -0.0042
    101  CD2       10.9510   59.2270   40.9840 C.ar   68  PHE68      -0.0042
    102  CE1       11.6650   57.0590   42.5740 C.ar   68  PHE68      -0.0003
    103  CE2       10.7380   57.9250   40.5230 C.ar   68  PHE68      -0.0003
    104  CZ        11.0970   56.8390   41.3230 C.ar   68  PHE68      -0.0000
    105  N          9.4190   44.0630   41.5470 N.3    92  ASP92      -0.1225
    106  CA        10.6430   44.1040   40.7610 C.3    92  ASP92       0.1805
    107  C         11.1360   45.5440   40.7430 C.2    92  ASP92       0.2598
    108  O         10.4240   46.4480   40.3330 O.2    92  ASP92      -0.2718
    109  CB        10.4250   43.5700   39.3340 C.3    92  ASP92       0.1424
    110  CG         9.3720   44.3350   38.5560 C.2    92  ASP92       0.3668
    111  OD1        8.1720   44.2410   38.8940 O.co2  92  ASP92      -0.2456
    112  OD2        9.7540   45.0230   37.5880 O.co2  92  ASP92      -0.2456
    113  N         12.3600   45.7500   41.2070 N.am   93  ASP93      -0.1960
    114  CA        12.9340   47.0790   41.2880 C.3    93  ASP93       0.1840
    115  C         14.3120   47.0470   40.6360 C.2    93  ASP93       0.2621
    116  O         14.7420   46.0040   40.1570 O.2    93  ASP93      -0.2715
    117  CB        13.0300   47.4470   42.7670 C.3    93  ASP93       0.1450
    118  CG        13.4580   48.8780   43.0040 C.2    93  ASP93       0.3671
    119  OD1       13.7440   49.6260   42.0410 O.co2  93  ASP93      -0.2456
    120  OD2       13.5100   49.2570   44.1920 O.co2  93  ASP93      -0.2456
    121  N         14.9900   48.1890   40.6060 N.am   94  VAL94      -0.1977
    122  CA        16.3310   48.2930   40.0370 C.3    94  VAL94       0.1596
    123  C         17.2140   48.9850   41.0700 C.2    94  VAL94       0.2287
    124  O         17.2760   50.2140   41.1060 O.2    94  VAL94      -0.2864
    125  CB        16.3310   49.1380   38.7450 C.3    94  VAL94       0.0276
    126  CG1       17.7450   49.2550   38.1910 C.3    94  VAL94       0.0022
    127  CG2       15.4220   48.5090   37.7190 C.3    94  VAL94       0.0022
    128  N         19.6330   50.7880   41.9480 N.3    96  LEU96      -0.1245
    129  CA        20.6830   51.6460   41.4210 C.3    96  LEU96       0.1561
    130  C         21.7620   51.8900   42.4670 C.2    96  LEU96       0.2260
    131  O         22.9310   52.0540   42.1270 O.2    96  LEU96      -0.2867
    132  CB        20.1050   52.9840   40.9550 C.3    96  LEU96       0.0270
    133  CG        19.2720   52.9890   39.6730 C.3    96  LEU96       0.0019
    134  CD1       18.8420   54.4200   39.3690 C.3    96  LEU96       0.0001
    135  CD2       20.0770   52.4150   38.5190 C.3    96  LEU96       0.0001
    136  N         13.1670   45.1040   22.1320 N.3   133  ARG133     -0.1245
    137  CA        11.9290   45.4490   22.8150 C.3   133  ARG133      0.1563
    138  C         11.4140   46.8100   22.3750 C.2   133  ARG133      0.2260
    139  O         10.2600   47.1470   22.6120 O.2   133  ARG133     -0.2867
    140  CB        12.1250   45.4440   24.3330 C.3   133  ARG133      0.0307
    141  CG        10.8180   45.4930   25.1020 C.3   133  ARG133      0.0489
    142  CD        11.0070   46.0690   26.4940 C.3   133  ARG133      0.2205
    143  NE        11.5440   45.1120   27.4550 N.pl3 133  ARG133     -0.0865
    144  CZ        12.1940   45.4530   28.5650 C.cat 133  ARG133      0.5346
    145  NH1       12.3990   46.7320   28.8570 N.pl3 133  ARG133      0.1354
    146  NH2       12.6320   44.5140   29.3910 N.pl3 133  ARG133      0.1354
    147  N         12.7160   49.6940   23.3940 N.3   135  ASP135     -0.1239
    148  CA        12.8990   50.6560   24.4750 C.3   135  ASP135      0.1674
    149  C         13.3840   51.9540   23.8660 C.2   135  ASP135      0.2266
    150  O         14.0800   51.9470   22.8550 O.2   135  ASP135     -0.2867
    151  CB        13.9390   50.1560   25.4820 C.3   135  ASP135      0.1410
    152  CG        13.3370   49.2790   26.5610 C.2   135  ASP135      0.3668
    153  OD1       12.5780   48.3520   26.2150 O.co2 135  ASP135     -0.2456
    154  OD2       13.6280   49.5100   27.7550 O.co2 135  ASP135     -0.2456
    155  N         20.6530   51.9780   28.9670 N.3   140  MET140     -0.1245
    156  CA        20.4280   51.5410   30.3420 C.3   140  MET140      0.1570
    157  C         20.8360   50.0980   30.5980 C.2   140  MET140      0.2261
    158  O         21.5860   49.8210   31.5350 O.2   140  MET140     -0.2867
    159  CB        18.9640   51.6840   30.7240 C.3   140  MET140      0.0387
    160  CG        18.4920   53.0990   30.8740 C.3   140  MET140      0.0595
    161  SD        16.8170   53.0770   31.5080 S.3   140  MET140     -0.1393
    162  CE        16.0010   52.1860   30.1540 C.3   140  MET140      0.0692
    163  N         23.3140   49.2810   33.7010 N.3   144  GLN144     -0.1245
    164  CA        22.8450   48.7000   34.9590 C.3   144  GLN144      0.1566
    165  C         23.0990   47.2070   35.1710 C.2   144  GLN144      0.2260
    166  O         22.9580   46.7100   36.2890 O.2   144  GLN144     -0.2867
    167  CB        21.3490   48.9500   35.1020 C.3   144  GLN144      0.0367
    168  CG        20.8880   50.2540   34.5100 C.3   144  GLN144      0.0905
    169  CD        19.4060   50.4610   34.7040 C.2   144  GLN144      0.2608
    170  OE1       18.6100   49.5400   34.4880 O.2   144  GLN144     -0.2717
    171  NE2       19.0180   51.6710   35.1070 N.am  144  GLN144     -0.0878
@<TRIPOS>BOND
     1   136   137    1
     2   138   139    2
     3   138   137    1
     4   137   140    1
     5   150   149    2
     6   147   148    1
     7   149   148    1
     8   140   141    1
     9   148   151    1
    10   141   142    1
    11   151   152    1
    12   153   152   ar
    13   142   143    1
    14   152   154   ar
    15   143   144    2
    16    16    15    1
    17   144   145    1
    18   144   146    1
    19    15    12    1
    20   155   156    1
    21    14    13    2
    22    71    70    2
    23    12    13    1
    24    12    11    1
    25   162   161    1
    26   156   157    1
    27   156   159    1
    28   157   158    2
    29    13    17   am
    30   159   160    1
    31   160   161    1
    32    70    69    1
    33    72    73    1
    34    72    69    1
    35    10     9    1
    36    11     7   am
    37     8     7    2
    38     7     6    1
    39    73    74   ar
    40    73    75   ar
    41    69    68    1
    42    17    18    1
    43    74    76   ar
    44     9     6    1
    45    75    77   ar
    46    19    18    1
    47    19    20    2
    48    18    21    1
    49    76    78   ar
    50     6     5    1
    51    77    78   ar
    52    35    36    1
    53    35    32    1
    54    33    32    1
    55    33    34    2
    56   163   164    1
    57     5     3   am
    58    32    31    1
    59    22    23    1
    60    31    24   am
    61    85    83    1
    62   170   169    2
    63    51    49   ar
    64   168   169    1
    65   168   167    1
    66    79    80    1
    67     3     4    2
    68     3     2    1
    69    50    49   ar
    70   169   171   am
    71    49    48    1
    72   164   167    1
    73   164   165    1
    74    24    23    1
    75    24    25    2
    76   165   166    2
    77    23    26    1
    78    48    45    1
    79    80    83    1
    80    80    81    1
    81     2     1    1
    82    58    56    1
    83    83    84    1
    84    63    62    2
    85    26    27    1
    86    47    46    2
    87    67    65    1
    88    45    46    1
    89    45    44    1
    90    62    61    1
    91    30    29    1
    92    65    64    1
    93    56    57    1
    94    56    53    1
    95    81    82    2
    96    27    28    1
    97    55    54    2
    98    54    53    1
    99    57    59    1
   100    66    64    1
   101    29    28    1
   102   112   110   ar
   103    64    61    1
   104    44    39   am
   105   127   125    1
   106    53    52    1
   107    61    60    1
   108   126   125    1
   109   135   133    1
   110   110   111   ar
   111   110   109    1
   112    42    41    1
   113    39    40    2
   114    39    38    1
   115   125   122    1
   116   109   106    1
   117   134   133    1
   118   133   132    1
   119    37    38    1
   120    41    38    1
   121    41    43    1
   122   122   121    1
   123   122   123    1
   124    93    91    1
   125   116   115    2
   126   108   107    2
   127    86    87    1
   128   103   101   ar
   129   103   104   ar
   130   121   115   am
   131   115   114    1
   132   107   106    1
   133   107   113   am
   134   106   105    1
   135   132   129    1
   136   101    99   ar
   137   123   124    2
   138    91    90    1
   139   113   114    1
   140    87    90    1
   141    87    88    1
   142   114   117    1
   143   104   102   ar
   144   129   128    1
   145   129   130    1
   146   119   118   ar
   147    90    92    1
   148   131   130    2
   149    99    98    1
   150    99   100   ar
   151    88    89    2
   152   102   100   ar
   153    98    95    1
   154   117   118    1
   155   118   120   ar
   156    95    94    1
   157    95    96    1
   158    96    97    2
