@<TRIPOS>MOLECULE
tmp/1grxA00.pdb
 93 89 0 0 0
SMALL
GASTEIGER

@<TRIPOS>ATOM
      1  N         -7.4900    2.9870   -6.1580 N.3     9  SER9       -0.1217
      2  CA        -8.6320    2.2450   -6.6400 C.3     9  SER9        0.1889
      3  C         -9.7760    3.2200   -6.8740 C.2     9  SER9        0.2288
      4  O        -10.1560    3.4900   -8.0070 O.2     9  SER9       -0.2866
      5  CB        -8.9870    1.2600   -5.5270 C.3     9  SER9        0.2089
      6  OG        -8.8070    1.9330   -4.2840 O.3     9  SER9       -0.2183
      7  N        -12.5230    2.2320   -5.2800 N.3    11  CYS11      -0.1235
      8  CA       -13.4760    1.2520   -4.7740 C.3    11  CYS11       0.1677
      9  C        -13.3700    1.2720   -3.2450 C.2    11  CYS11       0.2270
     10  O        -12.2600    1.1060   -2.7390 O.2    11  CYS11      -0.2867
     11  CB       -13.1200   -0.1650   -5.2660 C.3    11  CYS11       0.0956
     12  SG       -12.6940   -0.3940   -7.0060 S.3    11  CYS11      -0.0801
     13  N        -13.9730   -0.8300   -0.8670 N.3    13  TYR13      -0.1227
     14  CA       -13.4390   -2.0700   -0.3300 C.3    13  TYR13       0.1736
     15  C        -11.9110   -2.0520   -0.2670 C.2    13  TYR13       0.2596
     16  O        -11.3030   -2.3570    0.7500 O.2    13  TYR13      -0.2718
     17  CB       -13.9330   -3.2090   -1.2280 C.3    13  TYR13       0.0548
     18  CG       -13.3670   -4.5800   -0.9240 C.ar   13  TYR13      -0.0200
     19  CD1      -13.1710   -5.0060    0.4040 C.ar   13  TYR13      -0.0009
     20  CD2      -13.0740   -5.4530   -1.9860 C.ar   13  TYR13      -0.0009
     21  CE1      -12.6410   -6.2800    0.6600 C.ar   13  TYR13       0.0417
     22  CE2      -12.6400   -6.7590   -1.7180 C.ar   13  TYR13       0.0417
     23  CZ       -12.4040   -7.1690   -0.3980 C.ar   13  TYR13       0.1957
     24  OH       -11.9470   -8.4260   -0.1470 O.3    13  TYR13      -0.2866
     25  N        -11.2660   -1.7050   -1.3730 N.am   14  SER14      -0.1952
     26  CA        -9.8360   -1.6990   -1.4790 C.3    14  SER14       0.1924
     27  C         -9.2510   -0.5370   -0.6670 C.2    14  SER14       0.2314
     28  O         -8.2270   -0.6760   -0.0070 O.2    14  SER14      -0.2863
     29  CB        -9.6140   -1.4810   -2.9580 C.3    14  SER14       0.2116
     30  OG       -10.0410   -0.2230   -3.4100 O.3    14  SER14      -0.2180
     31  N          0.2430    0.4410  -14.5820 N.3    45  LYS45      -0.1245
     32  CA        -0.1920   -0.7670  -13.9030 C.3    45  LYS45       0.1561
     33  C          0.8260   -1.8840  -14.1690 C.2    45  LYS45       0.2260
     34  O          1.1190   -2.7000  -13.2920 O.2    45  LYS45      -0.2867
     35  CB        -1.5980   -1.0980  -14.4320 C.3    45  LYS45       0.0271
     36  CG        -2.5600   -1.5750  -13.3410 C.3    45  LYS45       0.0035
     37  CD        -3.9990   -1.3300  -13.8180 C.3    45  LYS45       0.0206
     38  CE        -5.0310   -1.5840  -12.7180 C.3    45  LYS45       0.1093
     39  NZ        -5.2880   -3.0160  -12.5000 N.3    45  LYS45      -0.1314
     40  N         -2.6810   -6.9310  -10.1960 N.3    57  GLU57      -0.1231
     41  CA        -3.6640   -6.2460  -11.0110 C.3    57  GLU57       0.1699
     42  C         -4.7520   -5.6460  -10.1120 C.2    57  GLU57       0.2593
     43  O         -5.5510   -4.8290  -10.5730 O.2    57  GLU57      -0.2718
     44  CB        -4.1980   -7.2340  -12.0650 C.3    57  GLU57       0.0402
     45  CG        -5.0990   -6.6500  -13.1670 C.3    57  GLU57       0.1161
     46  CD        -4.3930   -5.7370  -14.1440 C.2    57  GLU57       0.3649
     47  OE1       -3.7780   -4.7440  -13.7010 O.co2  57  GLU57      -0.2457
     48  OE2       -4.5260   -5.9760  -15.3640 O.co2  57  GLU57      -0.2457
     49  N         -4.7910   -5.9790   -8.8200 N.am   58  THR58      -0.1939
     50  CA        -5.6740   -5.2860   -7.8990 C.3    58  THR58       0.2028
     51  C         -4.9500   -4.0160   -7.4690 C.2    58  THR58       0.2642
     52  O         -3.7190   -3.9920   -7.4150 O.2    58  THR58      -0.2714
     53  CB        -5.9790   -6.1840   -6.6880 C.3    58  THR58       0.1808
     54  OG1       -4.8160   -6.8780   -6.2630 O.3    58  THR58      -0.2208
     55  CG2       -7.0540   -7.2040   -7.0620 C.3    58  THR58       0.0379
     56  N         -5.6910   -2.9590   -7.1590 N.am   59  VAL59      -0.1977
     57  CA        -5.1410   -1.7320   -6.6030 C.3    59  VAL59       0.1596
     58  C         -5.9290   -1.4270   -5.3150 C.2    59  VAL59       0.2287
     59  O         -7.0130   -1.9890   -5.1370 O.2    59  VAL59      -0.2864
     60  CB        -5.1670   -0.6310   -7.6780 C.3    59  VAL59       0.0276
     61  CG1       -4.4780   -1.0840   -8.9710 C.3    59  VAL59       0.0022
     62  CG2       -6.5830   -0.1550   -7.9680 C.3    59  VAL59       0.0022
     63  N         -2.6450   -5.7440   -1.8450 N.3    71  GLY71      -0.1210
     64  CA        -3.8240   -4.9320   -1.6250 C.3    71  GLY71       0.1956
     65  C         -4.1660   -4.8390   -0.1430 C.2    71  GLY71       0.2612
     66  O         -3.3680   -5.1610    0.7290 O.2    71  GLY71      -0.2717
     67  N         -5.3870   -4.3940    0.1470 N.am   72  TYR72      -0.1962
     68  CA        -5.9240   -4.2820    1.4970 C.3    72  TYR72       0.1771
     69  C         -5.6860   -5.5410    2.3360 C.2    72  TYR72       0.2620
     70  O         -5.0640   -5.4790    3.3910 O.2    72  TYR72      -0.2715
     71  CB        -7.4320   -3.9910    1.3550 C.3    72  TYR72       0.0574
     72  CG        -8.3000   -4.1480    2.5880 C.ar   72  TYR72      -0.0198
     73  CD1       -7.8130   -3.8260    3.8700 C.ar   72  TYR72      -0.0009
     74  CD2       -9.6300   -4.5840    2.4350 C.ar   72  TYR72      -0.0009
     75  CE1       -8.6250   -4.0330    4.9960 C.ar   72  TYR72       0.0417
     76  CE2      -10.4620   -4.7160    3.5570 C.ar   72  TYR72       0.0417
     77  CZ        -9.9510   -4.4560    4.8350 C.ar   72  TYR72       0.1957
     78  OH       -10.7420   -4.6080    5.9310 O.3    72  TYR72      -0.2866
     79  N         -6.2250   -6.6720    1.9070 N.am   73  THR73      -0.1937
     80  CA        -6.1740   -7.8880    2.6950 C.3    73  THR73       0.2028
     81  C         -4.7230   -8.3750    2.8240 C.2    73  THR73       0.2642
     82  O         -4.3240   -8.8260    3.8940 O.2    73  THR73      -0.2714
     83  CB        -7.1500   -8.8860    2.0640 C.3    73  THR73       0.1808
     84  OG1       -7.1380   -8.7070    0.6590 O.3    73  THR73      -0.2208
     85  CG2       -8.5810   -8.5830    2.5180 C.3    73  THR73       0.0379
     86  N         -3.9030   -8.2060    1.7780 N.am   74  ASP74      -0.1971
     87  CA        -2.4660   -8.4520    1.8800 C.3    74  ASP74       0.1709
     88  C         -1.8800   -7.5960    2.9950 C.2    74  ASP74       0.2293
     89  O         -1.0630   -8.0620    3.7770 O.2    74  ASP74      -0.2864
     90  CB        -1.7130   -8.0980    0.5920 C.3    74  ASP74       0.1436
     91  CG        -2.0970   -8.9410   -0.5900 C.2    74  ASP74       0.3671
     92  OD1       -1.6040  -10.0810   -0.6920 O.co2  74  ASP74      -0.2456
     93  OD2       -2.8790   -8.4420   -1.4230 O.co2  74  ASP74      -0.2456
@<TRIPOS>BOND
     1    48    46   ar
     2    31    32    1
     3    35    32    1
     4    35    36    1
     5    33    32    1
     6    33    34    2
     7    46    47   ar
     8    46    45    1
     9    37    36    1
    10    37    38    1
    11    45    44    1
    12    38    39    1
    13    44    41    1
    14    41    40    1
    15    41    42    1
    16    43    42    2
    17    42    49   am
    18    61    60    1
    19    49    50    1
    20     4     3    2
    21    62    60    1
    22    50    51    1
    23    50    53    1
    24    60    57    1
    25    51    52    2
    26    51    56   am
    27    56    57    1
    28    55    53    1
    29    12    11    1
    30     3     2    1
    31    53    54    1
    32     2     1    1
    33     2     5    1
    34    57    58    1
    35     5     6    1
    36    58    59    2
    37     7     8    1
    38    11     8    1
    39     8     9    1
    40    30    29    1
    41     9    10    2
    42    29    26    1
    43    20    22   ar
    44    20    18   ar
    45    63    64    1
    46    22    23   ar
    47    64    65    1
    48    26    25    1
    49    26    27    1
    50    93    91   ar
    51    25    15   am
    52    17    18    1
    53    17    14    1
    54    18    19   ar
    55    13    14    1
    56    92    91   ar
    57    27    28    2
    58    91    90    1
    59    23    24    1
    60    23    21   ar
    61    14    15    1
    62    15    16    2
    63    65    67   am
    64    65    66    2
    65    67    68    1
    66    19    21   ar
    67    90    87    1
    68    84    83    1
    69    71    68    1
    70    71    72    1
    71    68    69    1
    72    86    87    1
    73    86    81   am
    74    87    88    1
    75    79    69   am
    76    79    80    1
    77    83    85    1
    78    83    80    1
    79    69    70    2
    80    74    72   ar
    81    74    76   ar
    82    72    73   ar
    83    80    81    1
    84    81    82    2
    85    88    89    2
    86    76    77   ar
    87    73    75   ar
    88    77    75   ar
    89    77    78    1
