@<TRIPOS>MOLECULE
tmp/1gs4A00.pdb
 196 184 0 0 0
SMALL
GASTEIGER

@<TRIPOS>ATOM
      1  N         -3.2940   33.2540   -2.6380 N.3    32  HIS32      -0.1241
      2  CA        -3.4440   33.4220   -1.1910 C.3    32  HIS32       0.1621
      3  C         -4.6710   32.6650   -0.7060 C.2    32  HIS32       0.2264
      4  O         -4.7210   32.2240    0.4410 O.2    32  HIS32      -0.2867
      5  CB        -3.5220   34.9150   -0.8760 C.3    32  HIS32       0.0745
      6  CG        -2.2150   35.6260   -1.0170 C.ar   32  HIS32       0.0817
      7  ND1       -1.1520   35.4000   -0.1740 N.ar   32  HIS32      -0.2268
      8  CD2       -1.7990   36.5720   -1.8910 C.ar   32  HIS32       0.1154
      9  CE1       -0.1390   36.1680   -0.5260 C.ar   32  HIS32       0.1986
     10  NE2       -0.5020   36.8920   -1.5700 N.ar   32  HIS32      -0.2212
     11  N         -3.2650   29.3020   -0.1860 N.3    35  LEU35      -0.1231
     12  CA        -2.3550   29.2480    0.9700 C.3    35  LEU35       0.1693
     13  C         -3.0880   29.2310    2.3040 C.2    35  LEU35       0.2592
     14  O         -2.6490   28.5590    3.2440 O.2    35  LEU35      -0.2718
     15  CB        -1.3910   30.4420    0.9570 C.3    35  LEU35       0.0284
     16  CG        -0.3330   30.3630   -0.1580 C.3    35  LEU35       0.0019
     17  CD1        0.3960   31.6880   -0.3180 C.3    35  LEU35       0.0001
     18  CD2        0.6240   29.2130    0.1350 C.3    35  LEU35       0.0001
     19  N         -4.1700   29.9920    2.3700 N.am   36  ASN36      -0.1974
     20  CA        -4.9950   30.0370    3.5650 C.3    36  ASN36       0.1688
     21  C         -5.6500   28.6900    3.8090 C.2    36  ASN36       0.2292
     22  O         -5.7360   28.2630    4.9570 O.2    36  ASN36      -0.2864
     23  CB        -6.1160   31.0860    3.4470 C.3    36  ASN36       0.1181
     24  CG        -5.5170   32.4420    3.7800 C.2    36  ASN36       0.2629
     25  OD1       -4.4720   32.4730    4.4250 O.2    36  ASN36      -0.2716
     26  ND2       -6.1840   33.4890    3.3370 N.am   36  ASN36      -0.0877
     27  N         -4.4550   25.8620    2.7550 N.3    38  LEU38      -0.1231
     28  CA        -3.3120   25.0850    3.2210 C.3    38  LEU38       0.1693
     29  C         -3.0580   25.3170    4.7040 C.2    38  LEU38       0.2592
     30  O         -2.9440   24.3950    5.5110 O.2    38  LEU38      -0.2718
     31  CB        -2.0400   25.4640    2.4360 C.3    38  LEU38       0.0284
     32  CG        -0.8110   24.6710    2.9100 C.3    38  LEU38       0.0019
     33  CD1       -1.0980   23.1750    2.7980 C.3    38  LEU38       0.0001
     34  CD2        0.4310   25.0580    2.1310 C.3    38  LEU38       0.0001
     35  N         -2.9480   26.5970    5.0790 N.am   39  GLY39      -0.1957
     36  CA        -2.7550   26.9370    6.4800 C.3    39  GLY39       0.1869
     37  C         -3.7720   26.2410    7.3660 C.2    39  GLY39       0.2309
     38  O         -3.4200   25.6350    8.3790 O.2    39  GLY39      -0.2863
     39  N         -3.0130   22.5340    7.6140 N.3    42  GLN42      -0.1245
     40  CA        -1.8200   22.2560    8.4020 C.3    42  GLN42       0.1566
     41  C         -2.0970   22.5220    9.8720 C.2    42  GLN42       0.2260
     42  O         -1.6000   21.8040   10.7360 O.2    42  GLN42      -0.2867
     43  CB        -0.6350   23.0900    7.9130 C.3    42  GLN42       0.0367
     44  CG        -0.0510   22.5490    6.6010 C.3    42  GLN42       0.0905
     45  CD         1.2000   23.3390    6.2400 C.2    42  GLN42       0.2608
     46  OE1        1.6860   24.1060    7.0730 O.2    42  GLN42      -0.2717
     47  NE2        1.6990   23.1560    5.0260 N.am   42  GLN42      -0.0878
     48  N          2.3350   29.2000   15.4330 N.3    72  TRP72      -0.1227
     49  CA         2.1000   28.3770   14.2470 C.3    72  TRP72       0.1737
     50  C          2.7530   28.9420   12.9970 C.2    72  TRP72       0.2595
     51  O          3.2480   28.1750   12.1570 O.2    72  TRP72      -0.2718
     52  CB         0.5990   28.1640   14.0100 C.3    72  TRP72       0.0564
     53  CG        -0.1620   29.4300   13.7600 C.ar   72  TRP72       0.0003
     54  CD1       -0.6820   30.2540   14.7190 C.ar   72  TRP72       0.0946
     55  CD2       -0.5010   30.0330   12.5030 C.ar   72  TRP72       0.0152
     56  NE1       -1.3170   31.3260   14.1410 N.ar   72  TRP72      -0.2442
     57  CE2       -1.2210   31.2150   12.7810 C.ar   72  TRP72       0.0810
     58  CE3       -0.2690   29.6960   11.1680 C.ar   72  TRP72       0.0012
     59  CZ2       -1.7070   32.0550   11.7830 C.ar   72  TRP72       0.0191
     60  CZ3       -0.7500   30.5270   10.1750 C.ar   72  TRP72       0.0001
     61  CH2       -1.4620   31.6940   10.4830 C.ar   72  TRP72       0.0015
     62  N          2.7680   30.2570   12.8250 N.am   73  MET73      -0.1979
     63  CA         3.3790   30.8170   11.6220 C.3    73  MET73       0.1605
     64  C          4.8410   30.4090   11.5050 C.2    73  MET73       0.2287
     65  O          5.3190   29.9320   10.4710 O.2    73  MET73      -0.2864
     66  CB         3.2640   32.3450   11.6280 C.3    73  MET73       0.0413
     67  CG         3.9460   32.9730   10.4100 C.3    73  MET73       0.0598
     68  SD         2.9170   32.7580    8.9390 S.3    73  MET73      -0.1393
     69  CE         1.5940   33.9280    9.3330 C.3    73  MET73       0.0692
     70  N          5.3100   26.6970   10.7330 N.3    76  MET76      -0.1230
     71  CA         4.8990   26.2880    9.3920 C.3    76  MET76       0.1702
     72  C          5.9100   26.7870    8.3680 C.2    76  MET76       0.2592
     73  O          6.2390   26.1190    7.3920 O.2    76  MET76      -0.2718
     74  CB         3.4830   26.7680    9.0900 C.3    76  MET76       0.0401
     75  CG         2.3790   25.8880    9.6910 C.3    76  MET76       0.0596
     76  SD         0.7070   26.4970    9.3080 S.3    76  MET76      -0.1393
     77  CE        -0.2910   25.6100   10.4970 C.3    76  MET76       0.0692
     78  N          6.4530   27.9770    8.6080 N.am   77  VAL77      -0.1980
     79  CA         7.4990   28.5080    7.7430 C.3    77  VAL77       0.1595
     80  C          8.7590   27.6650    7.8160 C.2    77  VAL77       0.2287
     81  O          9.3330   27.2900    6.8000 O.2    77  VAL77      -0.2864
     82  CB         7.9010   29.9400    8.1580 C.3    77  VAL77       0.0276
     83  CG1        9.3300   30.2090    7.7340 C.3    77  VAL77       0.0022
     84  CG2        6.9210   30.9190    7.5490 C.3    77  VAL77       0.0022
     85  N          8.1580   24.3820    6.1840 N.3    80  MET80      -0.1245
     86  CA         8.0720   24.5760    4.7450 C.3    80  MET80       0.1570
     87  C          9.4660   24.7180    4.1340 C.2    80  MET80       0.2261
     88  O          9.7010   24.2460    3.0250 O.2    80  MET80      -0.2867
     89  CB         7.2480   25.8130    4.4170 C.3    80  MET80       0.0387
     90  CG         6.9850   25.9780    2.9260 C.3    80  MET80       0.0595
     91  SD         8.2180   26.9820    2.0740 S.3    80  MET80      -0.1393
     92  CE         7.9530   28.5830    2.8160 C.3    80  MET80       0.0692
     93  N         10.8690   21.1730    3.8960 N.3    83  ARG83      -0.1245
     94  CA        10.2350   20.5530    2.7530 C.3    83  ARG83       0.1563
     95  C         10.9130   21.0030    1.4640 C.2    83  ARG83       0.2260
     96  O         11.2090   20.2200    0.5760 O.2    83  ARG83      -0.2867
     97  CB         8.7620   20.9640    2.6200 C.3    83  ARG83       0.0307
     98  CG         7.7990   20.2380    3.5360 C.3    83  ARG83       0.0489
     99  CD         6.4040   20.2220    2.9360 C.3    83  ARG83       0.2205
    100  NE         5.7560   21.5260    2.9070 N.pl3  83  ARG83      -0.0865
    101  CZ         5.4180   22.1850    4.0110 C.cat  83  ARG83       0.5346
    102  NH1        4.8240   23.3660    3.9590 N.pl3  83  ARG83       0.1354
    103  NH2        5.6780   21.6650    5.2040 N.pl3  83  ARG83       0.1354
    104  N          5.2930   24.7200   -0.7830 N.3    95  PHE95      -0.1241
    105  CA         4.2780   24.8510    0.2580 C.3    95  PHE95       0.1605
    106  C          3.5670   23.5160    0.4230 C.2    95  PHE95       0.2264
    107  O          3.2790   23.0750    1.5320 O.2    95  PHE95      -0.2867
    108  CB         3.2860   25.9690   -0.0770 C.3    95  PHE95       0.0534
    109  CG         3.8950   27.3660   -0.0130 C.ar   95  PHE95      -0.0203
    110  CD1        4.3600   27.9900   -1.1610 C.ar   95  PHE95      -0.0042
    111  CD2        3.9910   28.0280    1.2020 C.ar   95  PHE95      -0.0042
    112  CE1        4.9350   29.2490   -1.1020 C.ar   95  PHE95      -0.0003
    113  CE2        4.5700   29.2820    1.2710 C.ar   95  PHE95      -0.0003
    114  CZ         5.0350   29.8990    0.1170 C.ar   95  PHE95      -0.0000
    115  N          4.2190   39.0250   -2.6010 N.3   111  MET111     -0.1245
    116  CA         5.0920   38.9600   -1.4200 C.3   111  MET111      0.1570
    117  C          6.4400   38.3680   -1.8110 C.2   111  MET111      0.2261
    118  O          7.0270   37.5160   -1.1560 O.2   111  MET111     -0.2867
    119  CB         4.4370   38.1700   -0.2950 C.3   111  MET111      0.0387
    120  CG         4.4960   36.6640   -0.4160 C.3   111  MET111      0.0595
    121  SD         3.4350   35.8780    0.8420 S.3   111  MET111     -0.1393
    122  CE         3.3800   34.2310    0.1190 C.3   111  MET111      0.0692
    123  N         12.1260   33.6080    2.7010 N.3   118  MET118     -0.1245
    124  CA        11.8060   32.2000    3.0220 C.3   118  MET118      0.1570
    125  C         12.7260   31.2480    2.2930 C.2   118  MET118      0.2261
    126  O         13.1410   30.1920    2.7920 O.2   118  MET118     -0.2867
    127  CB        10.3440   31.8690    2.6950 C.3   118  MET118      0.0387
    128  CG         9.4020   32.3880    3.7810 C.3   118  MET118      0.0595
    129  SD         7.6690   32.0010    3.4820 S.3   118  MET118     -0.1393
    130  CE         7.2350   33.2380    2.2860 C.3   118  MET118      0.0692
    131  N          5.2550   37.8230    7.7970 N.3   200  LEU200     -0.1245
    132  CA         4.0870   37.1150    7.2780 C.3   200  LEU200      0.1561
    133  C          2.8570   37.4380    8.1080 C.2   200  LEU200      0.2260
    134  O          1.7160   37.5430    7.6540 O.2   200  LEU200     -0.2867
    135  CB         4.4000   35.6120    7.2590 C.3   200  LEU200      0.0270
    136  CG         5.6560   35.2440    6.4630 C.3   200  LEU200      0.0019
    137  CD1        6.0020   33.7760    6.6230 C.3   200  LEU200      0.0001
    138  CD2        5.4730   35.5740    4.9890 C.3   200  LEU200      0.0001
    139  N          1.6710   40.6650    6.9330 N.3   203  PHE203     -0.1227
    140  CA         1.0790   40.5050    5.6040 C.3   203  PHE203      0.1736
    141  C         -0.2910   39.8760    5.7260 C.2   203  PHE203      0.2595
    142  O         -1.2510   40.3190    5.0830 O.2   203  PHE203     -0.2718
    143  CB         2.0020   39.6530    4.7260 C.3   203  PHE203      0.0547
    144  CG         1.6510   39.6190    3.2560 C.ar  203  PHE203     -0.0202
    145  CD1        2.3130   40.4580    2.3660 C.ar  203  PHE203     -0.0042
    146  CD2        0.6690   38.7710    2.7730 C.ar  203  PHE203     -0.0042
    147  CE1        2.0110   40.4710    1.0130 C.ar  203  PHE203     -0.0003
    148  CE2        0.3650   38.7760    1.4220 C.ar  203  PHE203     -0.0003
    149  CZ         1.0280   39.6200    0.5430 C.ar  203  PHE203     -0.0000
    150  N         -0.4130   38.8180    6.5450 N.am  204  ALA204     -0.1980
    151  CA        -1.7430   38.2040    6.6130 C.3   204  ALA204      0.1597
    152  C         -2.7600   39.1450    7.2470 C.2   204  ALA204      0.2287
    153  O         -3.9360   39.1690    6.8600 O.2   204  ALA204     -0.2864
    154  CB        -1.7090   36.8970    7.3870 C.3   204  ALA204      0.0319
    155  N         -3.8790   41.6060    4.7050 N.3   207  LEU207     -0.1245
    156  CA        -4.7370   40.9370    3.7350 C.3   207  LEU207      0.1561
    157  C         -6.1190   40.7080    4.3210 C.2   207  LEU207      0.2260
    158  O         -7.1540   40.8890    3.6860 O.2   207  LEU207     -0.2867
    159  CB        -4.1560   39.5820    3.3370 C.3   207  LEU207      0.0270
    160  CG        -4.5870   38.9960    1.9910 C.3   207  LEU207      0.0019
    161  CD1       -4.8110   40.0880    0.9530 C.3   207  LEU207      0.0001
    162  CD2       -3.5510   37.9950    1.4890 C.3   207  LEU207      0.0001
    163  N         -9.8000   37.5670   -1.3360 N.3   216  VAL216     -0.1245
    164  CA        -9.0460   36.4950   -0.7140 C.3   216  VAL216      0.1561
    165  C         -9.8440   35.8620    0.4170 C.2   216  VAL216      0.2260
    166  O        -10.3040   36.5510    1.3290 O.2   216  VAL216     -0.2867
    167  CB        -7.7220   37.0070   -0.1200 C.3   216  VAL216      0.0252
    168  CG1       -7.1450   35.9570    0.8180 C.3   216  VAL216      0.0019
    169  CG2       -6.7530   37.3600   -1.2300 C.3   216  VAL216      0.0019
    170  N        -10.5410   33.5400    3.7770 N.3   218  PHE218     -0.1241
    171  CA       -10.0260   33.1280    5.0690 C.3   218  PHE218      0.1605
    172  C        -10.9270   32.0700    5.6970 C.2   218  PHE218      0.2264
    173  O        -12.0730   32.3430    6.0740 O.2   218  PHE218     -0.2867
    174  CB        -9.8920   34.3260    6.0360 C.3   218  PHE218      0.0534
    175  CG        -8.6630   35.1670    5.7480 C.ar  218  PHE218     -0.0203
    176  CD1       -8.6460   36.0560    4.6840 C.ar  218  PHE218     -0.0042
    177  CD2       -7.5260   35.0700    6.5260 C.ar  218  PHE218     -0.0042
    178  CE1       -7.5190   36.8100    4.4050 C.ar  218  PHE218     -0.0003
    179  CE2       -6.3880   35.8100    6.2530 C.ar  218  PHE218     -0.0003
    180  CZ        -6.3790   36.6890    5.1820 C.ar  218  PHE218     -0.0000
    181  N         -8.5780   30.5940   10.6750 N.3   222  MET222     -0.1245
    182  CA        -7.5660   31.5790   10.3050 C.3   222  MET222      0.1570
    183  C         -8.0610   33.0090   10.4790 C.2   222  MET222      0.2261
    184  O         -7.3730   33.8520   11.0430 O.2   222  MET222     -0.2867
    185  CB        -7.1140   31.3880    8.8540 C.3   222  MET222      0.0387
    186  CG        -6.3240   30.1140    8.6100 C.3   222  MET222      0.0595
    187  SD        -4.7040   30.1390    9.4010 S.3   222  MET222     -0.1393
    188  CE        -4.6710   28.5040   10.1320 C.3   222  MET222      0.0692
    189  N         -6.1420   35.2870   13.0000 N.3   226  ILE226     -0.1245
    190  CA        -5.4300   36.4520   12.4600 C.3   226  ILE226      0.1561
    191  C         -6.0470   37.7510   12.9670 C.2   226  ILE226      0.2260
    192  O         -5.3660   38.7810   12.9500 O.2   226  ILE226     -0.2867
    193  CB        -5.3820   36.4260   10.9210 C.3   226  ILE226      0.0252
    194  CG1       -4.6250   35.2060   10.3900 C.3   226  ILE226      0.0019
    195  CG2       -4.8180   37.7240   10.3630 C.3   226  ILE226      0.0019
    196  CD1       -4.2400   35.2740    8.9340 C.3   226  ILE226      0.0001
@<TRIPOS>BOND
     1     1     2    1
     2   115   116    1
     3     8    10   ar
     4     8     6   ar
     5   117   116    1
     6   117   118    2
     7    10     9   ar
     8   116   119    1
     9   163   164    1
    10   169   167    1
    11     2     5    1
    12     2     3    1
    13   110   112   ar
    14   110   109   ar
    15   112   114   ar
    16     6     5    1
    17     6     7   ar
    18   104   105    1
    19   164   167    1
    20   164   165    1
    21     3     4    2
    22     9     7   ar
    23   120   119    1
    24   120   121    1
    25    17    16    1
    26    11    12    1
    27    16    18    1
    28    16    15    1
    29   167   168    1
    30   108   109    1
    31   108   105    1
    32   109   111   ar
    33   114   113   ar
    34   122   121    1
    35   105   106    1
    36   165   166    2
    37   106   107    2
    38   149   147   ar
    39   149   148   ar
    40    96    95    2
    41   161   160    1
    42    15    12    1
    43    12    13    1
    44   147   145   ar
    45   111   113   ar
    46   148   146   ar
    47    95    94    1
    48   162   160    1
    49   160   159    1
    50    91    92    1
    51    91    90    1
    52    34    32    1
    53   130   129    1
    54   125   126    2
    55   125   124    1
    56    13    19   am
    57    13    14    2
    58   145   144   ar
    59    19    20    1
    60    31    32    1
    61    31    28    1
    62    97    94    1
    63    97    98    1
    64   127   124    1
    65   127   128    1
    66   123   124    1
    67    94    93    1
    68    27    28    1
    69   146   144   ar
    70    33    32    1
    71   100    99    1
    72   100   101    2
    73    90    89    1
    74    99    98    1
    75    88    87    2
    76    28    29    1
    77   144   143    1
    78    26    24   am
    79   159   156    1
    80    23    20    1
    81    23    24    1
    82   129   128    1
    83    20    21    1
    84   158   157    2
    85   156   157    1
    86   156   155    1
    87   170   171    1
    88    24    25    2
    89    21    22    2
    90   102   101    1
    91   101   103    1
    92    87    86    1
    93   178   176   ar
    94   178   180   ar
    95    89    86    1
    96   176   175   ar
    97    29    35   am
    98    29    30    2
    99   143   140    1
   100    86    85    1
   101   138   136    1
   102    47    45   am
   103   171   172    1
   104   171   174    1
   105    35    36    1
   106   142   141    2
   107   180   179   ar
   108   140   141    1
   109   140   139    1
   110   172   173    2
   111   141   150   am
   112   175   174    1
   113   175   177   ar
   114    45    44    1
   115    45    46    2
   116   179   177   ar
   117   136   137    1
   118   136   135    1
   119    36    37    1
   120   150   151    1
   121    44    43    1
   122   151   152    1
   123   151   154    1
   124    81    80    2
   125   153   152    2
   126   135   132    1
   127   132   131    1
   128   132   133    1
   129    37    38    2
   130    73    72    2
   131    84    82    1
   132    39    40    1
   133   134   133    2
   134    83    82    1
   135    79    80    1
   136    79    82    1
   137    79    78    1
   138    43    40    1
   139    72    78   am
   140    72    71    1
   141    40    41    1
   142   186   185    1
   143   186   187    1
   144   185   182    1
   145   196   194    1
   146    68    69    1
   147    68    67    1
   148    74    71    1
   149    74    75    1
   150    76    75    1
   151    76    77    1
   152    71    70    1
   153   187   188    1
   154    41    42    2
   155    60    61   ar
   156    60    58   ar
   157   182   183    1
   158   182   181    1
   159   195   193    1
   160   194   193    1
   161    67    66    1
   162    65    64    2
   163   183   184    2
   164    61    59   ar
   165   193   190    1
   166    58    55   ar
   167    64    63    1
   168    63    66    1
   169    63    62    1
   170    59    57   ar
   171    51    50    2
   172   190   191    1
   173   190   189    1
   174    55    57   ar
   175    55    53   ar
   176    57    56   ar
   177    62    50   am
   178   192   191    2
   179    50    49    1
   180    53    52    1
   181    53    54   ar
   182    52    49    1
   183    56    54   ar
   184    49    48    1
