@<TRIPOS>MOLECULE
tmp/1gs5A01.pdb
 166 158 0 0 0
SMALL
GASTEIGER

@<TRIPOS>ATOM
      1  N         23.2150   21.5730   43.1040 N.3     8  LYS8       -0.1301
      2  CA        23.9060   20.3780   42.6580 C.3     8  LYS8        0.1247
      3  C         23.0020   19.1880   42.5500 C.3     8  LYS8        0.2009
      4  O         22.2350   18.9630   43.5570 O.3     8  LYS8       -0.2188
      5  CB        25.0770   20.1370   43.6070 C.3     8  LYS8        0.0218
      6  CG        25.9330   18.9360   43.2290 C.3     8  LYS8        0.0031
      7  CD        25.4700   17.6400   43.8590 C.3     8  LYS8        0.0205
      8  CE        26.2930   16.4850   43.2670 C.3     8  LYS8        0.1093
      9  NZ        26.0490   15.2390   44.0900 N.3     8  LYS8       -0.1314
     10  N         22.3680   15.0410   41.8280 N.3    10  GLY10      -0.1210
     11  CA        23.0210   13.7330   41.5770 C.3    10  GLY10       0.1956
     12  C         22.0670   12.6430   42.0970 C.2    10  GLY10       0.2612
     13  O         20.8780   12.9070   42.2920 O.2    10  GLY10      -0.2717
     14  N         22.6300   11.4620   42.2800 N.am   11  GLY11      -0.1956
     15  CA        21.8270   10.3320   42.7930 C.3    11  GLY11       0.1869
     16  C         21.0870    9.7120   41.6110 C.2    11  GLY11       0.2309
     17  O         21.5110    9.8650   40.4680 O.2    11  GLY11      -0.2863
     18  N         26.2560   15.4850   39.1190 N.3    43  GLY43      -0.1210
     19  CA        27.1080   14.2570   39.0750 C.3    43  GLY43       0.1956
     20  C         26.4410   13.3300   38.0700 C.2    43  GLY43       0.2612
     21  O         26.1110   13.6180   36.9600 O.2    43  GLY43      -0.2717
     22  N         26.2650   12.0610   38.5140 N.am   44  GLY44      -0.1942
     23  CA        25.7390   11.0510   37.5630 C.3    44  GLY44       0.2014
     24  C         26.3750    9.6780   37.7760 C.2    44  GLY44       0.2639
     25  O         26.5280    8.9410   36.8000 O.2    44  GLY44      -0.2714
     26  N         26.8500    9.4710   38.9860 N.am   45  GLY45      -0.1939
     27  CA        27.4650    8.1450   39.2960 C.3    45  GLY45       0.2014
     28  C         26.6390    6.9890   38.7570 C.2    45  GLY45       0.2639
     29  O         27.1720    6.0100   38.2340 O.2    45  GLY45      -0.2714
     30  N         25.3170    7.0820   38.8130 N.am   46  CYS46      -0.1967
     31  CA        24.4670    5.9640   38.3770 C.3    46  CYS46       0.1712
     32  C         24.5880    5.7230   36.8830 C.2    46  CYS46       0.2296
     33  O         24.5590    4.5700   36.4110 O.2    46  CYS46      -0.2864
     34  CB        23.0200    6.1830   38.8250 C.3    46  CYS46       0.0983
     35  SG        22.2580    7.6820   38.1860 S.3    46  CYS46      -0.0798
     36  N         35.3000    2.1630   44.8720 N.3    61  LYS61      -0.1245
     37  CA        35.3620    3.4850   45.4760 C.3    61  LYS61       0.1561
     38  C         36.2970    3.4190   46.6590 C.2    61  LYS61       0.2260
     39  O         36.2420    2.5370   47.5280 O.2    61  LYS61      -0.2867
     40  CB        33.9430    3.9580   45.8020 C.3    61  LYS61       0.0271
     41  CG        33.2380    4.3680   44.5080 C.3    61  LYS61       0.0035
     42  CD        31.8740    4.9790   44.7620 C.3    61  LYS61       0.0206
     43  CE        31.1560    5.3040   43.4530 C.3    61  LYS61       0.1093
     44  NZ        29.8540    5.9760   43.7200 N.3    61  LYS61      -0.1314
     45  N         34.6980   14.2850   42.0930 N.3   160  ASN160     -0.1225
     46  CA        33.3890   14.0050   42.7550 C.3   160  ASN160      0.1785
     47  C         32.5460   15.3080   42.6260 C.2   160  ASN160      0.2597
     48  O         33.0500   16.3910   42.8510 O.2   160  ASN160     -0.2718
     49  CB        33.6780   13.7470   44.2250 C.3   160  ASN160      0.1169
     50  CG        32.4350   13.7930   45.1590 C.2   160  ASN160      0.2627
     51  OD1       32.1970   14.9120   45.6640 O.2   160  ASN160     -0.2716
     52  ND2       31.8730   12.5950   45.2410 N.am  160  ASN160     -0.0877
     53  N         31.2430   15.1610   42.3370 N.am  161  ALA161     -0.1966
     54  CA        30.4620   16.3330   42.0150 C.3   161  ALA161      0.1728
     55  C         30.1360   17.2270   43.2100 C.2   161  ALA161      0.2616
     56  O         30.0160   18.4420   42.9760 O.2   161  ALA161     -0.2715
     57  CB        29.1810   15.9020   41.2810 C.3   161  ALA161      0.0334
     58  N         30.1100   16.6950   44.4330 N.am  162  ASP162     -0.1971
     59  CA        29.9470   17.5600   45.5810 C.3   162  ASP162      0.1709
     60  C         31.1550   18.4760   45.7690 C.2   162  ASP162      0.2293
     61  O         31.0490   19.6530   46.0240 O.2   162  ASP162     -0.2864
     62  CB        29.7350   16.7240   46.8810 C.3   162  ASP162      0.1436
     63  CG        28.4710   15.9330   46.9120 C.2   162  ASP162      0.3671
     64  OD1       27.4470   16.3800   46.3500 O.co2 162  ASP162     -0.2456
     65  OD2       28.4600   14.8300   47.4950 O.co2 162  ASP162     -0.2456
     66  N         21.5470   18.5160   46.3330 N.3   179  LEU179     -0.1231
     67  CA        20.3640   17.6930   46.2670 C.3   179  LEU179      0.1693
     68  C         20.6660   16.2240   46.0430 C.2   179  LEU179      0.2593
     69  O         21.3650   15.9390   45.0030 O.2   179  LEU179     -0.2718
     70  CB        19.4070   18.1090   45.1530 C.3   179  LEU179      0.0284
     71  CG        18.7450   19.4700   45.2690 C.3   179  LEU179      0.0019
     72  CD1       17.7820   19.6030   44.0690 C.3   179  LEU179      0.0001
     73  CD2       17.9320   19.5840   46.5600 C.3   179  LEU179      0.0001
     74  N         20.0770   15.3580   46.8320 N.am  180  SER180     -0.1938
     75  CA        20.3700   13.9440   46.7660 C.3   180  SER180      0.2055
     76  C         19.0880   13.1110   46.8780 C.2   180  SER180      0.2643
     77  O         18.0050   13.6900   46.9080 O.2   180  SER180     -0.2714
     78  CB        21.3110   13.5380   47.9080 C.3   180  SER180      0.2130
     79  OG        20.8550   14.0360   49.1630 O.3   180  SER180     -0.2179
     80  N         19.2950   11.8030   46.9500 N.am  181  ASP181     -0.1957
     81  CA        18.1520   10.8990   46.9890 C.3   181  ASP181      0.1840
     82  C         17.6540   10.7020   48.4210 C.2   181  ASP181      0.2621
     83  O         16.6690    9.9930   48.6340 O.2   181  ASP181     -0.2715
     84  CB        18.4800    9.5070   46.4700 C.3   181  ASP181      0.1450
     85  CG        19.4180    9.4180   45.2980 C.2   181  ASP181      0.3671
     86  OD1       19.2420   10.1360   44.3000 O.co2 181  ASP181     -0.2456
     87  OD2       20.3440    8.5830   45.3940 O.co2 181  ASP181     -0.2456
     88  N         18.3690   11.1810   49.4030 N.am  182  VAL182     -0.1977
     89  CA        17.9700   11.0730   50.7970 C.3   182  VAL182      0.1596
     90  C         17.7270   12.4720   51.3700 C.2   182  VAL182      0.2287
     91  O         18.3030   13.4720   50.9190 O.2   182  VAL182     -0.2864
     92  CB        19.0390   10.3750   51.6660 C.3   182  VAL182      0.0276
     93  CG1       19.4110    9.0370   51.0530 C.3   182  VAL182      0.0022
     94  CG2       20.2330   11.2910   51.8450 C.3   182  VAL182      0.0022
     95  N         18.7960   14.5110   53.4710 N.3   184  GLY184     -0.1210
     96  CA        19.8670   15.0640   54.2690 C.3   184  GLY184      0.1956
     97  C         20.7240   13.9340   54.8400 C.2   184  GLY184      0.2612
     98  O         20.7870   12.8100   54.3270 O.2   184  GLY184     -0.2717
     99  N         21.3950   14.2660   55.9290 N.am  185  ILE185     -0.1965
    100  CA        22.2720   13.3440   56.6320 C.3   185  ILE185      0.1727
    101  C         21.4430   12.6280   57.7040 C.2   185  ILE185      0.2616
    102  O         20.6940   13.2500   58.4500 O.2   185  ILE185     -0.2715
    103  CB        23.4690   14.0700   57.2630 C.3   185  ILE185      0.0290
    104  CG1       24.2220   14.8020   56.1350 C.3   185  ILE185      0.0022
    105  CG2       24.4040   13.0510   57.9020 C.3   185  ILE185      0.0023
    106  CD1       25.4280   15.5280   56.6160 C.3   185  ILE185      0.0001
    107  N         21.5530   11.3280   57.7210 N.am  186  LEU186     -0.1977
    108  CA        20.7940   10.4910   58.6510 C.3   186  LEU186      0.1596
    109  C         21.6340    9.9740   59.8020 C.2   186  LEU186      0.2287
    110  O         22.8340    9.7580   59.7240 O.2   186  LEU186     -0.2864
    111  CB        20.1610    9.3120   57.9300 C.3   186  LEU186      0.0297
    112  CG        19.4770    9.6170   56.6050 C.3   186  LEU186      0.0022
    113  CD1       19.0370    8.3390   55.9250 C.3   186  LEU186      0.0001
    114  CD2       18.3250   10.6120   56.7710 C.3   186  LEU186      0.0001
    115  N         28.6630    6.4450   61.8230 N.3   209  ILE209     -0.1231
    116  CA        27.3030    6.7390   61.2760 C.3   209  ILE209      0.1692
    117  C         27.3430    7.3590   59.8820 C.2   209  ILE209      0.2592
    118  O         26.4950    7.0380   59.0380 O.2   209  ILE209     -0.2718
    119  CB        26.5840    7.6510   62.2800 C.3   209  ILE209      0.0266
    120  CG1       26.4470    6.9830   63.6610 C.3   209  ILE209      0.0019
    121  CG2       25.2250    8.1500   61.8110 C.3   209  ILE209      0.0020
    122  CD1       25.4430    5.8840   63.7040 C.3   209  ILE209      0.0001
    123  N         28.2500    8.3130   59.6620 N.am  210  ILE210     -0.1966
    124  CA        28.4530    8.8990   58.3290 C.3   210  ILE210      0.1727
    125  C         29.5780    8.0700   57.6460 C.2   210  ILE210      0.2617
    126  O         30.6080    8.0480   58.2890 O.2   210  ILE210     -0.2715
    127  CB        28.9080   10.3690   58.4580 C.3   210  ILE210      0.0290
    128  CG1       27.7060   11.2460   58.8600 C.3   210  ILE210      0.0022
    129  CG2       29.5230   10.9610   57.1960 C.3   210  ILE210      0.0023
    130  CD1       28.0660   12.6220   59.2890 C.3   210  ILE210      0.0001
    131  N         29.2550    7.5340   56.5090 N.am  211  THR211     -0.1937
    132  CA        30.1370    6.7270   55.7180 C.3   211  THR211      0.2028
    133  C         29.9460    6.9890   54.2210 C.2   211  THR211      0.2642
    134  O         29.0500    7.6050   53.6510 O.2   211  THR211     -0.2714
    135  CB        29.9220    5.2180   55.9900 C.3   211  THR211      0.1808
    136  OG1       28.6890    4.7740   55.4320 O.3   211  THR211     -0.2208
    137  CG2       29.9460    4.9890   57.4950 C.3   211  THR211      0.0379
    138  N         30.9530    6.4240   53.5600 N.am  212  ASP212     -0.1956
    139  CA        31.1780    6.4110   52.1390 C.3   212  ASP212      0.1853
    140  C         31.1570    7.8310   51.5790 C.2   212  ASP212      0.2776
    141  O         31.9190    8.6810   52.0490 O.2   212  ASP212     -0.2701
    142  CB        30.2670    5.4840   51.3520 C.3   212  ASP212      0.1428
    143  CG        29.2960    6.1510   50.4100 C.2   212  ASP212      0.3421
    144  OD1       29.4000    7.3610   50.1290 O.3   212  ASP212     -0.3428
    145  OD2       28.3810    5.4630   49.9060 O.2   212  ASP212     -0.2479
    146  N         30.3780    8.0110   50.5380 N.am  213  GLY213     -0.1085
    147  CA        30.3910    9.3000   49.8320 C.3   213  GLY213      0.2228
    148  C         29.7220   10.3470   50.7180 C.2   213  GLY213      0.2656
    149  O         29.7350   11.5220   50.3990 O.2   213  GLY213     -0.2713
    150  N         29.1870    9.8890   51.8600 N.am  214  MET214     -0.1976
    151  CA        28.4520   10.8640   52.6650 C.3   214  MET214      0.1605
    152  C         29.3860   11.7570   53.4460 C.2   214  MET214      0.2287
    153  O         29.2100   12.9130   53.7340 O.2   214  MET214     -0.2864
    154  CB        27.3790   10.2990   53.6000 C.3   214  MET214      0.0413
    155  CG        26.5390   11.4530   54.1850 C.3   214  MET214      0.0598
    156  SD        25.5370   12.2190   52.8690 S.3   214  MET214     -0.1393
    157  CE        25.7400   13.9830   53.1850 C.3   214  MET214      0.0692
    158  N         30.5100   14.1250   50.9700 N.3   217  LYS217     -0.1245
    159  CA        29.4720   15.1330   50.8410 C.3   217  LYS217      0.1561
    160  C         29.4980   16.1460   51.9830 C.2   217  LYS217      0.2260
    161  O         29.4490   17.3580   51.7490 O.2   217  LYS217     -0.2867
    162  CB        28.0770   14.5350   50.6540 C.3   217  LYS217      0.0271
    163  CG        27.0470   15.5360   50.1510 C.3   217  LYS217      0.0035
    164  CD        25.6240   15.0310   50.2170 C.3   217  LYS217      0.0206
    165  CE        25.4130   13.8250   49.3160 C.3   217  LYS217      0.1093
    166  NZ        25.8870   14.1920   47.9450 N.3   217  LYS217     -0.1314
@<TRIPOS>BOND
     1    33    32    2
     2    25    24    2
     3    32    31    1
     4    21    20    2
     5    23    24    1
     6    23    22    1
     7    24    26   am
     8    20    22   am
     9    20    19    1
    10    35    34    1
    11    29    28    2
    12    31    30    1
    13    31    34    1
    14    28    30   am
    15    28    27    1
    16    26    27    1
    17    19    18    1
    18    17    16    2
    19    57    54    1
    20    11    10    1
    21    11    12    1
    22    16    15    1
    23    54    53    1
    24    54    55    1
    25    45    46    1
    26    12    14   am
    27    12    13    2
    28    14    15    1
    29    53    47   am
    30     3     2    1
    31     3     4    1
    32    47    46    1
    33    47    48    2
    34     2     1    1
    35     2     5    1
    36    46    49    1
    37    56    55    2
    38    55    58   am
    39     6     5    1
    40     6     7    1
    41     8     7    1
    42     8     9    1
    43    43    44    1
    44    43    42    1
    45    72    71    1
    46    49    50    1
    47    86    85   ar
    48    58    59    1
    49    41    42    1
    50    41    40    1
    51    36    37    1
    52    69    68    2
    53    70    71    1
    54    70    67    1
    55    50    52   am
    56    50    51    2
    57    71    73    1
    58    85    87   ar
    59    85    84    1
    60    37    40    1
    61    37    38    1
    62    59    60    1
    63    59    62    1
    64    60    61    2
    65    68    67    1
    66    68    74   am
    67    67    66    1
    68    64    63   ar
    69    84    81    1
    70    38    39    2
    71    75    74    1
    72    75    76    1
    73    75    78    1
    74    76    77    2
    75    76    80   am
    76    62    63    1
    77    63    65   ar
    78    80    81    1
    79    81    82    1
    80    78    79    1
    81   166   165    1
    82    82    83    2
    83    82    88   am
    84   165   164    1
    85    88    89    1
    86   147   146    1
    87   147   148    1
    88   145   143    2
    89   144   143    1
    90   144   146    1
    91   163   164    1
    92   163   162    1
    93   149   148    2
    94   143   142    1
    95   146   140   am
    96   162   159    1
    97   148   150   am
    98    89    90    1
    99    89    92    1
   100   159   158    1
   101   159   160    1
   102    91    90    2
   103    93    92    1
   104   142   139    1
   105   140   141    2
   106   140   139    1
   107    92    94    1
   108   161   160    2
   109   150   151    1
   110   139   138    1
   111   151   152    1
   112   151   154    1
   113   156   157    1
   114   156   155    1
   115   152   153    2
   116    95    96    1
   117   138   133   am
   118   154   155    1
   119   134   133    2
   120   133   132    1
   121    96    97    1
   122    98    97    2
   123    97    99   am
   124   136   135    1
   125   132   135    1
   126   132   131    1
   127   113   112    1
   128    99   100    1
   129   135   137    1
   130   104   106    1
   131   104   103    1
   132   131   125   am
   133   112   114    1
   134   112   111    1
   135   100   103    1
   136   100   101    1
   137   129   127    1
   138   103   105    1
   139   125   126    2
   140   125   124    1
   141   101   107   am
   142   101   102    2
   143   107   108    1
   144   111   108    1
   145   124   127    1
   146   124   123    1
   147   127   128    1
   148   108   109    1
   149   128   130    1
   150   118   117    2
   151   123   117   am
   152   110   109    2
   153   117   116    1
   154   116   115    1
   155   116   119    1
   156   121   119    1
   157   119   120    1
   158   120   122    1
