@<TRIPOS>MOLECULE
tmp/1gs5A00.pdb
 129 118 0 0 0
SMALL
GASTEIGER

@<TRIPOS>ATOM
      1  N         23.2150   21.5730   43.1040 N.3     8  LYS8       -0.1301
      2  CA        23.9060   20.3780   42.6580 C.3     8  LYS8        0.1247
      3  C         23.0020   19.1880   42.5500 C.3     8  LYS8        0.2009
      4  O         22.2350   18.9630   43.5570 O.3     8  LYS8       -0.2188
      5  CB        25.0770   20.1370   43.6070 C.3     8  LYS8        0.0218
      6  CG        25.9330   18.9360   43.2290 C.3     8  LYS8        0.0031
      7  CD        25.4700   17.6400   43.8590 C.3     8  LYS8        0.0205
      8  CE        26.2930   16.4850   43.2670 C.3     8  LYS8        0.1093
      9  NZ        26.0490   15.2390   44.0900 N.3     8  LYS8       -0.1314
     10  N         22.3680   15.0410   41.8280 N.3    10  GLY10      -0.1225
     11  CA        23.0210   13.7330   41.5770 C.3    10  GLY10       0.1811
     12  C         22.0670   12.6430   42.0970 C.2    10  GLY10       0.2280
     13  O         20.8780   12.9070   42.2920 O.2    10  GLY10      -0.2866
     14  N         26.2560   15.4850   39.1190 N.3    43  GLY43      -0.1210
     15  CA        27.1080   14.2570   39.0750 C.3    43  GLY43       0.1956
     16  C         26.4410   13.3300   38.0700 C.2    43  GLY43       0.2612
     17  O         26.1110   13.6180   36.9600 O.2    43  GLY43      -0.2717
     18  N         26.2650   12.0610   38.5140 N.am   44  GLY44      -0.1942
     19  CA        25.7390   11.0510   37.5630 C.3    44  GLY44       0.2014
     20  C         26.3750    9.6780   37.7760 C.2    44  GLY44       0.2639
     21  O         26.5280    8.9410   36.8000 O.2    44  GLY44      -0.2714
     22  N         26.8500    9.4710   38.9860 N.am   45  GLY45      -0.1954
     23  CA        27.4650    8.1450   39.2960 C.3    45  GLY45       0.1869
     24  C         26.6390    6.9890   38.7570 C.2    45  GLY45       0.2309
     25  O         27.1720    6.0100   38.2340 O.2    45  GLY45      -0.2863
     26  N         27.2890    6.3190   35.0970 N.3    48  VAL48      -0.1245
     27  CA        28.5490    5.6070   34.9800 C.3    48  VAL48       0.1561
     28  C         28.4000    4.1270   35.3760 C.2    48  VAL48       0.2260
     29  O         28.9160    3.3100   34.5990 O.2    48  VAL48      -0.2867
     30  CB        29.6300    6.2600   35.8960 C.3    48  VAL48       0.0252
     31  CG1       30.9190    5.4700   35.7590 C.3    48  VAL48       0.0019
     32  CG2       29.7450    7.7120   35.4630 C.3    48  VAL48       0.0019
     33  N         35.3000    2.1630   44.8720 N.3    61  LYS61      -0.1245
     34  CA        35.3620    3.4850   45.4760 C.3    61  LYS61       0.1561
     35  C         36.2970    3.4190   46.6590 C.2    61  LYS61       0.2260
     36  O         36.2420    2.5370   47.5280 O.2    61  LYS61      -0.2867
     37  CB        33.9430    3.9580   45.8020 C.3    61  LYS61       0.0271
     38  CG        33.2380    4.3680   44.5080 C.3    61  LYS61       0.0035
     39  CD        31.8740    4.9790   44.7620 C.3    61  LYS61       0.0206
     40  CE        31.1560    5.3040   43.4530 C.3    61  LYS61       0.1093
     41  NZ        29.8540    5.9760   43.7200 N.3    61  LYS61      -0.1314
     42  N         35.0510    6.8930   49.3450 N.3    64  GLY64      -0.1210
     43  CA        33.9510    7.5790   48.7170 C.3    64  GLY64       0.1956
     44  C         34.2270    8.1120   47.3210 C.2    64  GLY64       0.2612
     45  O         33.3030    8.5860   46.6820 O.2    64  GLY64      -0.2717
     46  N         35.4400    7.9860   46.8090 N.am   65  LEU65      -0.1965
     47  CA        35.7970    8.4560   45.4700 C.3    65  LEU65       0.1728
     48  C         36.0160    7.2480   44.5670 C.2    65  LEU65       0.2616
     49  O         36.6380    6.2350   44.9650 O.2    65  LEU65      -0.2715
     50  CB        37.0610    9.3120   45.5190 C.3    65  LEU65       0.0311
     51  CG        37.0420   10.5110   46.4600 C.3    65  LEU65       0.0022
     52  CD1       38.3670   11.2170   46.4650 C.3    65  LEU65       0.0001
     53  CD2       35.9460   11.4610   45.9070 C.3    65  LEU65       0.0001
     54  N         35.5400    7.3390   43.3440 N.am   66  ARG66      -0.1977
     55  CA        35.6580    6.2640   42.3870 C.3    66  ARG66       0.1597
     56  C         37.0730    6.1600   41.8080 C.2    66  ARG66       0.2287
     57  O         37.5940    7.1190   41.1850 O.2    66  ARG66      -0.2864
     58  CB        34.7400    6.4680   41.1860 C.3    66  ARG66       0.0334
     59  CG        34.7820    5.3570   40.1400 C.3    66  ARG66       0.0492
     60  CD        34.0880    5.7030   38.8340 C.3    66  ARG66       0.2205
     61  NE        32.7310    6.2040   39.1250 N.pl3  66  ARG66      -0.0865
     62  CZ        31.7040    5.3890   39.3260 C.cat  66  ARG66       0.5346
     63  NH1       31.7930    4.0730   39.2390 N.pl3  66  ARG66       0.1354
     64  NH2       30.5110    5.9200   39.6430 N.pl3  66  ARG66       0.1354
     65  N         34.0290    7.2170   31.3930 N.3    76  ILE76      -0.1245
     66  CA        33.4190    7.9810   32.4770 C.3    76  ILE76       0.1561
     67  C         33.1580    9.3910   32.0020 C.2    76  ILE76       0.2260
     68  O         32.0820    9.9500   32.2570 O.2    76  ILE76      -0.2867
     69  CB        34.3330    7.9510   33.7160 C.3    76  ILE76       0.0252
     70  CG1       34.2340    6.4920   34.2170 C.3    76  ILE76       0.0019
     71  CG2       33.9430    8.8800   34.8710 C.3    76  ILE76       0.0019
     72  CD1       35.2210    6.1550   35.3080 C.3    76  ILE76       0.0001
     73  N         29.4470   11.1640   32.0380 N.3    80  LEU80      -0.1245
     74  CA        29.1860   12.3210   32.8950 C.3    80  LEU80       0.1561
     75  C         29.1930   13.6300   32.1070 C.2    80  LEU80       0.2260
     76  O         28.1990   14.4030   32.1390 O.2    80  LEU80      -0.2867
     77  CB        30.2610   12.4620   33.9620 C.3    80  LEU80       0.0270
     78  CG        30.1920   11.3960   35.0400 C.3    80  LEU80       0.0019
     79  CD1       31.2340   11.6680   36.1340 C.3    80  LEU80       0.0001
     80  CD2       28.8410   11.2490   35.6760 C.3    80  LEU80       0.0001
     81  N         41.4770   10.8280   39.1530 N.3   122  VAL122     -0.1245
     82  CA        40.5450   11.5600   40.0400 C.3   122  VAL122      0.1561
     83  C         41.1520   12.8960   40.3480 C.2   122  VAL122      0.2260
     84  O         42.3330   13.0700   40.6960 O.2   122  VAL122     -0.2867
     85  CB        40.2990   10.7740   41.3190 C.3   122  VAL122      0.0252
     86  CG1       39.5460   11.5930   42.3650 C.3   122  VAL122      0.0019
     87  CG2       39.5670    9.4580   41.0010 C.3   122  VAL122      0.0019
     88  N         31.1110   17.3960   36.2480 N.3   147  SER147     -0.1217
     89  CA        32.1990   17.3220   37.2160 C.3   147  SER147      0.1889
     90  C         33.4380   16.6820   36.6420 C.2   147  SER147      0.2288
     91  O         34.3420   16.1990   37.4100 O.2   147  SER147     -0.2866
     92  CB        31.7370   16.6170   38.4990 C.3   147  SER147      0.2089
     93  OG        31.5250   15.2490   38.3040 O.3   147  SER147     -0.2183
     94  N         38.2750   12.9730   36.6860 N.3   158  ASN158     -0.1225
     95  CA        36.9510   12.7240   37.2510 C.3   158  ASN158      0.1785
     96  C         36.9660   13.3480   38.6260 C.2   158  ASN158      0.2597
     97  O         37.7320   12.9710   39.5180 O.2   158  ASN158     -0.2718
     98  CB        36.7390   11.2090   37.3260 C.3   158  ASN158      0.1169
     99  CG        35.4440   10.7690   37.9120 C.2   158  ASN158      0.2627
    100  OD1       34.5420   11.6540   38.0740 O.2   158  ASN158     -0.2716
    101  ND2       35.2180    9.5210   38.3070 N.am  158  ASN158     -0.0877
    102  N         36.1100   14.3290   38.8500 N.am  159  VAL159     -0.1966
    103  CA        35.9690   14.9990   40.1690 C.3   159  VAL159      0.1727
    104  C         34.6710   14.6270   40.8270 C.2   159  VAL159      0.2616
    105  O         33.5960   14.6280   40.1800 O.2   159  VAL159     -0.2715
    106  CB        36.0460   16.5170   40.0000 C.3   159  VAL159      0.0290
    107  CG1       36.0310   17.2510   41.3820 C.3   159  VAL159      0.0023
    108  CG2       37.3240   16.9270   39.2940 C.3   159  VAL159      0.0023
    109  N         34.6980   14.2850   42.0930 N.am  160  ASN160     -0.1958
    110  CA        33.3890   14.0050   42.7550 C.3   160  ASN160      0.1819
    111  C         32.5460   15.3080   42.6260 C.2   160  ASN160      0.2621
    112  O         33.0500   16.3910   42.8510 O.2   160  ASN160     -0.2715
    113  CB        33.6780   13.7470   44.2250 C.3   160  ASN160      0.1195
    114  CG        32.4350   13.7930   45.1590 C.2   160  ASN160      0.2630
    115  OD1       32.1970   14.9120   45.6640 O.2   160  ASN160     -0.2716
    116  ND2       31.8730   12.5950   45.2410 N.am  160  ASN160     -0.0877
    117  N         31.2430   15.1610   42.3370 N.am  161  ALA161     -0.1963
    118  CA        30.4620   16.3330   42.0150 C.3   161  ALA161      0.1728
    119  C         30.1360   17.2270   43.2100 C.2   161  ALA161      0.2616
    120  O         30.0160   18.4420   42.9760 O.2   161  ALA161     -0.2715
    121  CB        29.1810   15.9020   41.2810 C.3   161  ALA161      0.0334
    122  N         30.1100   16.6950   44.4330 N.am  162  ASP162     -0.1971
    123  CA        29.9470   17.5600   45.5810 C.3   162  ASP162      0.1709
    124  C         31.1550   18.4760   45.7690 C.2   162  ASP162      0.2293
    125  O         31.0490   19.6530   46.0240 O.2   162  ASP162     -0.2864
    126  CB        29.7350   16.7240   46.8810 C.3   162  ASP162      0.1436
    127  CG        28.4710   15.9330   46.9120 C.2   162  ASP162      0.3671
    128  OD1       27.4470   16.3800   46.3500 O.co2 162  ASP162     -0.2456
    129  OD2       28.4600   14.8300   47.4950 O.co2 162  ASP162     -0.2456
@<TRIPOS>BOND
     1    65    66    1
     2    67    68    2
     3    67    66    1
     4    73    74    1
     5    75    76    2
     6    75    74    1
     7    66    69    1
     8    74    77    1
     9    69    70    1
    10    69    71    1
    11    77    78    1
    12    70    72    1
    13    29    28    2
    14    27    26    1
    15    27    28    1
    16    27    30    1
    17    78    80    1
    18    78    79    1
    19    32    30    1
    20    31    30    1
    21    88    89    1
    22    90    89    1
    23    90    91    2
    24    94    95    1
    25    21    20    2
    26    17    16    2
    27    89    92    1
    28    95    98    1
    29    95    96    1
    30    98    99    1
    31    19    20    1
    32    19    18    1
    33    20    22   am
    34    99   100    2
    35    99   101   am
    36    16    18   am
    37    16    15    1
    38    25    24    2
    39    93    92    1
    40    96   102   am
    41    96    97    2
    42    24    23    1
    43    60    61    1
    44    60    59    1
    45   102   103    1
    46    22    23    1
    47    15    14    1
    48    61    62    2
    49    81    82    1
    50    63    62    1
    51   108   106    1
    52    62    64    1
    53   106   103    1
    54   106   107    1
    55    82    83    1
    56    82    85    1
    57    59    58    1
    58   103   104    1
    59   105   104    2
    60    83    84    2
    61   104   109   am
    62    87    85    1
    63    57    56    2
    64    58    55    1
    65   121   118    1
    66    85    86    1
    67    11    10    1
    68    11    12    1
    69    56    55    1
    70   118   117    1
    71   118   119    1
    72   109   110    1
    73    12    13    2
    74   117   111   am
    75    55    54    1
    76     3     2    1
    77     3     4    1
    78   111   110    1
    79   111   112    2
    80     2     1    1
    81     2     5    1
    82   110   113    1
    83   120   119    2
    84   119   122   am
    85     6     5    1
    86     6     7    1
    87     8     7    1
    88     8     9    1
    89    54    48   am
    90    40    41    1
    91    40    39    1
    92   113   114    1
    93   122   123    1
    94    38    39    1
    95    38    37    1
    96    48    49    2
    97    48    47    1
    98    33    34    1
    99   114   116   am
   100   114   115    2
   101    47    50    1
   102    47    46    1
   103    34    37    1
   104    34    35    1
   105    50    51    1
   106   123   124    1
   107   123   126    1
   108   124   125    2
   109    53    51    1
   110   128   127   ar
   111    51    52    1
   112    35    36    2
   113    45    44    2
   114    46    44   am
   115   126   127    1
   116   127   129   ar
   117    44    43    1
   118    43    42    1
