@<TRIPOS>MOLECULE
tmp/1gsaA01.pdb
 168 159 0 0 0
SMALL
GASTEIGER

@<TRIPOS>ATOM
      1  N         30.9700   16.9300   56.6500 N.3     9  ASP9       -0.1239
      2  CA        31.6840   18.1880   56.5530 C.3     9  ASP9        0.1674
      3  C         33.1160   17.8300   56.2120 C.2     9  ASP9        0.2266
      4  O         33.5310   16.6780   56.4040 O.2     9  ASP9       -0.2867
      5  CB        31.6540   18.9240   57.8850 C.3     9  ASP9        0.1410
      6  CG        30.2760   19.3610   58.3090 C.2     9  ASP9        0.3668
      7  OD1       29.8750   20.4570   57.9450 O.co2   9  ASP9       -0.2456
      8  OD2       29.6020   18.6020   58.9950 O.co2   9  ASP9       -0.2456
      9  N         38.4870   12.9710   68.3290 N.3    18  LYS18      -0.1231
     10  CA        37.1680   13.1540   68.8880 C.3    18  LYS18       0.1693
     11  C         36.1090   12.7890   67.9030 C.2    18  LYS18       0.2592
     12  O         34.9790   12.5460   68.3170 O.2    18  LYS18      -0.2718
     13  CB        36.9090   14.5950   69.2440 C.3    18  LYS18       0.0285
     14  CG        37.7220   15.2750   70.3400 C.3    18  LYS18       0.0035
     15  CD        37.3730   14.6950   71.7300 C.3    18  LYS18       0.0206
     16  CE        37.0250   15.7210   72.8630 C.3    18  LYS18       0.1093
     17  NZ        36.4820   15.0800   74.0660 N.3    18  LYS18      -0.1314
     18  N         36.4080   12.7850   66.6160 N.am   19  ASP19      -0.1960
     19  CA        35.3390   12.6710   65.6540 C.3    19  ASP19       0.1840
     20  C         34.6740   11.3130   65.5550 C.2    19  ASP19       0.2623
     21  O         35.3210   10.2840   65.3600 O.2    19  ASP19      -0.2715
     22  CB        35.8730   13.1040   64.2900 C.3    19  ASP19       0.1450
     23  CG        34.7640   13.3990   63.2750 C.2    19  ASP19       0.3671
     24  OD1       34.3370   12.4800   62.5830 O.co2  19  ASP19      -0.2456
     25  OD2       34.3160   14.5380   63.1520 O.co2  19  ASP19      -0.2456
     26  N         33.3510   11.2580   65.6680 N.am   20  SER20      -0.1936
     27  CA        32.6970    9.9700   65.5360 C.3    20  SER20       0.2055
     28  C         32.4860    9.5400   64.1010 C.2    20  SER20       0.2643
     29  O         32.5120    8.3310   63.9050 O.2    20  SER20      -0.2714
     30  CB        31.3640    9.9950   66.2600 C.3    20  SER20       0.2130
     31  OG        31.6020   10.2710   67.6350 O.3    20  SER20      -0.2179
     32  N         32.2850   10.3820   63.0610 N.am   21  SER21      -0.1949
     33  CA        32.1610    9.8760   61.7010 C.3    21  SER21       0.1924
     34  C         33.4170    9.0900   61.3600 C.2    21  SER21       0.2314
     35  O         33.3450    8.0130   60.8080 O.2    21  SER21      -0.2863
     36  CB        32.0240   11.0120   60.7170 C.3    21  SER21       0.2116
     37  OG        30.9950   11.8890   61.1200 O.3    21  SER21      -0.2180
     38  N         26.0230   12.3120   57.8490 N.3    86  ARG86      -0.1245
     39  CA        26.7110   12.8080   59.0110 C.3    86  ARG86       0.1563
     40  C         27.0070   14.2990   58.9080 C.2    86  ARG86       0.2260
     41  O         27.9730   14.7550   59.5300 O.2    86  ARG86      -0.2867
     42  CB        27.9850   11.9980   59.1440 C.3    86  ARG86       0.0307
     43  CG        27.8180   10.5550   59.5800 C.3    86  ARG86       0.0489
     44  CD        27.3320   10.4570   61.0260 C.3    86  ARG86       0.2205
     45  NE        28.2820   10.9860   61.9930 N.pl3  86  ARG86      -0.0865
     46  CZ        28.0460   11.0000   63.3040 C.cat  86  ARG86       0.5346
     47  NH1       26.9290   10.5260   63.8210 N.pl3  86  ARG86       0.1354
     48  NH2       28.9460   11.4950   64.1220 N.pl3  86  ARG86       0.1354
     49  N         26.8310   18.1230   59.8420 N.3    88  ASP88      -0.1225
     50  CA        26.5560   18.7900   61.1080 C.3    88  ASP88       0.1790
     51  C         25.4700   19.7930   60.9850 C.2    88  ASP88       0.2439
     52  O         25.3130   20.3810   59.9030 O.2    88  ASP88      -0.2733
     53  CB        27.7460   19.5570   61.6730 C.3    88  ASP88       0.1423
     54  CG        28.8310   18.6570   62.2030 C.2    88  ASP88       0.3668
     55  OD1       28.5510   17.5080   62.5470 O.co2  88  ASP88      -0.2456
     56  OD2       29.9700   19.1120   62.2390 O.co2  88  ASP88      -0.2456
     57  N         24.7400   20.0730   62.0730 N.am   89  PRO89      -0.2729
     58  CA        23.7910   21.1830   62.1110 C.3    89  PRO89       0.1401
     59  C         24.5090   22.4920   61.8120 C.2    89  PRO89       0.2269
     60  O         25.7480   22.4790   61.7700 O.2    89  PRO89      -0.2865
     61  CB        23.1880   21.0840   63.4930 C.3    89  PRO89       0.0296
     62  CG        23.2890   19.6420   63.7860 C.3    89  PRO89       0.0237
     63  CD        24.7090   19.3330   63.3240 C.3    89  PRO89       0.0939
     64  N         15.8100   18.2410   66.4130 N.3   124  GLU124     -0.1245
     65  CA        16.4770   17.8870   67.6610 C.3   124  GLU124      0.1567
     66  C         15.8990   18.5210   68.9140 C.2   124  GLU124      0.2260
     67  O         15.9160   17.9300   69.9930 O.2   124  GLU124     -0.2867
     68  CB        17.9640   18.2270   67.5260 C.3   124  GLU124      0.0388
     69  CG        18.5470   17.4360   66.3450 C.3   124  GLU124      0.1160
     70  CD        20.0470   17.4930   66.1050 C.2   124  GLU124      0.3649
     71  OE1       20.7070   18.4790   66.4020 O.co2 124  GLU124     -0.2457
     72  OE2       20.5900   16.5220   65.6040 O.co2 124  GLU124     -0.2457
     73  N         23.2580   23.4040   67.8120 N.3   165  MET165     -0.1230
     74  CA        23.6770   22.3240   68.6820 C.3   165  MET165      0.1702
     75  C         24.9410   22.8410   69.3700 C.2   165  MET165      0.2592
     76  O         25.3540   23.9850   69.1170 O.2   165  MET165     -0.2718
     77  CB        23.9780   21.0500   67.8710 C.3   165  MET165      0.0401
     78  CG        25.3080   20.8850   67.1300 C.3   165  MET165      0.0596
     79  SD        25.7260   22.2670   66.0290 S.3   165  MET165     -0.1393
     80  CE        27.4290   21.7930   65.8580 C.3   165  MET165      0.0692
     81  N         25.5580   22.0790   70.2870 N.am  166  GLY166     -0.1957
     82  CA        26.8080   22.5070   70.9070 C.3   166  GLY166      0.1869
     83  C         26.7460   23.7090   71.8720 C.2   166  GLY166      0.2309
     84  O         27.7880   24.2590   72.2460 O.2   166  GLY166     -0.2863
     85  N         25.1490   12.2850   77.4900 N.3   210  ARG210     -0.1245
     86  CA        24.8650   11.8740   76.1410 C.3   210  ARG210      0.1563
     87  C         24.6540   10.3730   76.2310 C.2   210  ARG210      0.2260
     88  O         25.5820    9.6450   76.6050 O.2   210  ARG210     -0.2867
     89  CB        26.0430   12.2040   75.2360 C.3   210  ARG210      0.0307
     90  CG        26.0470   11.4820   73.8670 C.3   210  ARG210      0.0489
     91  CD        24.7440   11.5590   73.0520 C.3   210  ARG210      0.2205
     92  NE        24.2930   12.9250   72.8800 N.pl3 210  ARG210     -0.0865
     93  CZ        24.9400   13.8210   72.1410 C.cat 210  ARG210      0.5346
     94  NH1       26.0480   13.5700   71.4720 N.pl3 210  ARG210      0.1354
     95  NH2       24.5300   15.0610   72.1220 N.pl3 210  ARG210      0.1354
     96  N         28.4840   15.2830   80.5560 N.3   225  ARG225     -0.1245
     97  CA        29.2460   16.4570   80.1860 C.3   225  ARG225      0.1563
     98  C         29.0290   17.5070   81.2670 C.2   225  ARG225      0.2260
     99  O         27.9130   17.9900   81.5160 O.2   225  ARG225     -0.2867
    100  CB        28.7770   16.9760   78.8110 C.3   225  ARG225      0.0307
    101  CG        29.0910   16.0590   77.6380 C.3   225  ARG225      0.0489
    102  CD        27.8110   15.4400   77.1030 C.3   225  ARG225      0.2205
    103  NE        27.4830   16.0290   75.8240 N.pl3 225  ARG225     -0.0865
    104  CZ        26.2570   16.3310   75.4310 C.cat 225  ARG225      0.5346
    105  NH1       25.1570   16.1440   76.1570 N.pl3 225  ARG225      0.1354
    106  NH2       26.1680   16.8520   74.2320 N.pl3 225  ARG225      0.1354
    107  N         27.9230   21.0650   77.0630 N.3   235  ASN235     -0.1225
    108  CA        28.4870   20.6670   75.7720 C.3   235  ASN235      0.1785
    109  C         29.9900   20.6020   75.6750 C.2   235  ASN235      0.2597
    110  O         30.6470   21.5790   76.0220 O.2   235  ASN235     -0.2718
    111  CB        28.0900   21.6190   74.6630 C.3   235  ASN235      0.1169
    112  CG        26.5980   21.7430   74.5550 C.2   235  ASN235      0.2627
    113  OD1       25.9940   22.5600   75.2350 O.2   235  ASN235     -0.2716
    114  ND2       25.9650   20.9530   73.7090 N.am  235  ASN235     -0.0877
    115  N         30.5740   19.5160   75.1620 N.am  236  LEU236     -0.1966
    116  CA        32.0180   19.4720   74.9290 C.3   236  LEU236      0.1728
    117  C         32.4400   20.6330   74.0270 C.2   236  LEU236      0.2616
    118  O         33.5000   21.2340   74.2280 O.2   236  LEU236     -0.2715
    119  CB        32.4550   18.1780   74.2380 C.3   236  LEU236      0.0311
    120  CG        32.2210   16.8620   74.9450 C.3   236  LEU236      0.0022
    121  CD1       32.7550   15.7500   74.0450 C.3   236  LEU236      0.0001
    122  CD2       32.8760   16.8630   76.3120 C.3   236  LEU236      0.0001
    123  N         31.5430   20.9610   73.0770 N.am  237  ALA237     -0.1977
    124  CA        31.7120   22.0750   72.1590 C.3   237  ALA237      0.1597
    125  C         31.8820   23.4240   72.8450 C.2   237  ALA237      0.2287
    126  O         32.5600   24.3160   72.3460 O.2   237  ALA237     -0.2864
    127  CB        30.5040   22.1370   71.2400 C.3   237  ALA237      0.0319
    128  N         19.4230   14.2000   69.4050 N.3   283  ASN283     -0.1240
    129  CA        20.2690   14.4530   68.2570 C.3   283  ASN283      0.1653
    130  C         20.2360   13.2970   67.2970 C.2   283  ASN283      0.2266
    131  O         20.6600   12.1810   67.5670 O.2   283  ASN283     -0.2867
    132  CB        21.7250   14.7320   68.6810 C.3   283  ASN283      0.1155
    133  CG        21.6830   15.9710   69.5580 C.2   283  ASN283      0.2627
    134  OD1       21.1850   17.0220   69.1680 O.2   283  ASN283     -0.2716
    135  ND2       22.0630   15.9640   70.8190 N.am  283  ASN283     -0.0877
    136  N         21.0870   14.1190   63.7210 N.3   285  THR285     -0.1203
    137  CA        21.9050   14.4060   62.5390 C.3   285  THR285      0.1994
    138  C         23.3400   13.8750   62.6140 C.2   285  THR285      0.2619
    139  O         23.6800   12.9980   61.8140 O.2   285  THR285     -0.2717
    140  CB        21.8930   15.9350   62.2920 C.3   285  THR285      0.1784
    141  OG1       22.2940   16.5380   63.5140 O.3   285  THR285     -0.2211
    142  CG2       20.5310   16.4960   61.9370 C.3   285  THR285      0.0376
    143  N         24.1870   14.3580   63.5220 N.am  286  SER286     -0.1938
    144  CA        25.5610   13.9170   63.6470 C.3   286  SER286      0.2040
    145  C         26.0210   13.7800   65.1140 C.2   286  SER286      0.2485
    146  O         27.0160   14.3970   65.5210 O.2   286  SER286     -0.2729
    147  CB        26.3980   14.9330   62.8630 C.3   286  SER286      0.2129
    148  OG        27.7260   14.5520   62.4910 O.3   286  SER286     -0.2179
    149  N         25.3380   13.0320   65.9990 N.am  287  PRO287     -0.2715
    150  CA        25.7430   12.8470   67.3810 C.3   287  PRO287      0.1536
    151  C         27.1120   12.2230   67.4900 C.2   287  PRO287      0.2599
    152  O         27.5350   11.3980   66.6890 O.2   287  PRO287     -0.2715
    153  CB        24.6160   12.0090   67.9830 C.3   287  PRO287      0.0310
    154  CG        24.0670   11.2070   66.8470 C.3   287  PRO287      0.0237
    155  CD        24.1180   12.2620   65.7440 C.3   287  PRO287      0.0939
    156  N         27.8420   12.7390   68.4480 N.am  288  THR288     -0.1937
    157  CA        29.1610   12.2540   68.7200 C.3   288  THR288      0.2028
    158  C         29.2680   11.6630   70.1300 C.2   288  THR288      0.2642
    159  O         28.2670   11.1670   70.6420 O.2   288  THR288     -0.2714
    160  CB        30.0210   13.4850   68.3880 C.3   288  THR288      0.1808
    161  OG1       31.3400   12.9730   68.2130 O.3   288  THR288     -0.2208
    162  CG2       29.9720   14.5860   69.3970 C.3   288  THR288      0.0379
    163  N         30.4490   11.6540   70.7460 N.am  289  CYS289     -0.1967
    164  CA        30.8150   11.0620   72.0290 C.3   289  CYS289      0.1712
    165  C         31.1980    9.5850   71.9470 C.2   289  CYS289      0.2296
    166  O         31.6020    9.0180   72.9730 O.2   289  CYS289     -0.2864
    167  CB        29.7060   11.2260   73.0720 C.3   289  CYS289      0.0983
    168  SG        29.5210   13.0080   73.3320 S.3   289  CYS289     -0.0798
@<TRIPOS>BOND
     1     3     4    2
     2     3     2    1
     3     2     1    1
     4     2     5    1
     5    38    39    1
     6     5     6    1
     7     7     6   ar
     8     6     8   ar
     9    40    39    1
    10    40    41    2
    11    39    42    1
    12    42    43    1
    13    43    44    1
    14    49    50    1
    15    52    51    2
    16    36    37    1
    17    36    33    1
    18    35    34    2
    19    51    50    1
    20    51    57   am
    21    44    45    1
    22    50    53    1
    23    34    33    1
    24    53    54    1
    25    33    32    1
    26    60    59    2
    27    59    58    1
    28   139   138    2
    29   142   140    1
    30    45    46    2
    31    57    58    1
    32    57    63    1
    33    58    61    1
    34    54    56   ar
    35    54    55   ar
    36   140   137    1
    37   140   141    1
    38   148   147    1
    39   137   138    1
    40   137   136    1
    41    24    23   ar
    42   138   143   am
    43   147   144    1
    44    32    28   am
    45    25    23   ar
    46    23    22    1
    47    46    47    1
    48    46    48    1
    49    63    62    1
    50    61    62    1
    51   143   144    1
    52   144   145    1
    53    29    28    2
    54    28    27    1
    55    22    19    1
    56   145   146    2
    57   145   149   am
    58    21    20    2
    59    27    26    1
    60    27    30    1
    61    20    19    1
    62    20    26   am
    63    72    70   ar
    64    19    18    1
    65   155   149    1
    66   155   154    1
    67    80    79    1
    68   149   150    1
    69    79    78    1
    70    70    69    1
    71    70    71   ar
    72    30    31    1
    73    69    68    1
    74    64    65    1
    75    18    11   am
    76   152   151    2
    77   154   153    1
    78    78    77    1
    79   130   131    2
    80   130   129    1
    81   150   151    1
    82   150   153    1
    83   151   156   am
    84    68    65    1
    85    65    66    1
    86    73    74    1
    87    77    74    1
    88    11    12    2
    89    11    10    1
    90   161   160    1
    91   129   132    1
    92   129   128    1
    93     9    10    1
    94   160   157    1
    95   160   162    1
    96   156   157    1
    97   132   133    1
    98    74    75    1
    99   157   158    1
   100    10    13    1
   101    66    67    2
   102    76    75    2
   103   134   133    2
   104    13    14    1
   105    75    81   am
   106   133   135   am
   107   158   159    2
   108   158   163   am
   109    81    82    1
   110    14    15    1
   111   163   164    1
   112    82    83    1
   113   127   124    1
   114    94    93    1
   115    15    16    1
   116    83    84    2
   117   165   164    1
   118   165   166    2
   119   164   167    1
   120    95    93    1
   121    93    92    2
   122   124   125    1
   123   124   123    1
   124   126   125    2
   125    16    17    1
   126    92    91    1
   127    91    90    1
   128   167   168    1
   129   123   117   am
   130   114   112   am
   131    90    89    1
   132   117   118    2
   133   117   116    1
   134   121   120    1
   135   106   104    1
   136   119   116    1
   137   119   120    1
   138   112   111    1
   139   112   113    2
   140   111   108    1
   141   116   115    1
   142   120   122    1
   143   115   109   am
   144    89    86    1
   145   104   103    2
   146   104   105    1
   147   109   108    1
   148   109   110    2
   149   108   107    1
   150   103   102    1
   151    86    87    1
   152    86    85    1
   153    87    88    2
   154   102   101    1
   155   101   100    1
   156   100    97    1
   157    97    96    1
   158    97    98    1
   159    98    99    2
