@<TRIPOS>MOLECULE
tmp/1gsaA00.pdb
 192 180 0 0 0
SMALL
GASTEIGER

@<TRIPOS>ATOM
      1  N         15.3140   19.6960   68.7990 N.3   125  LYS125     -0.1245
      2  CA        14.6650   20.3000   69.9250 C.3   125  LYS125      0.1561
      3  C         13.1910   19.9710   69.8830 C.2   125  LYS125      0.2260
      4  O         12.6700   19.4950   70.8880 O.2   125  LYS125     -0.2867
      5  CB        14.7870   21.8120   69.9360 C.3   125  LYS125      0.0271
      6  CG        16.1690   22.4130   70.0530 C.3   125  LYS125      0.0035
      7  CD        17.0170   21.7990   71.1630 C.3   125  LYS125      0.0206
      8  CE        18.3580   22.5510   71.2820 C.3   125  LYS125      0.1093
      9  NZ        19.1580   22.4780   70.0620 N.3   125  LYS125     -0.1314
     10  N         11.6440   18.6260   80.5860 N.3   136  PRO136     -0.2116
     11  CA        11.1690   19.6860   81.4670 C.3   136  PRO136      0.1372
     12  C          9.9630   20.4150   80.8970 C.2   136  PRO136      0.2244
     13  O          9.4150   20.0370   79.8420 O.2   136  PRO136     -0.2868
     14  CB        12.3790   20.5430   81.6640 C.3   136  PRO136      0.0268
     15  CG        13.2830   20.2380   80.5050 C.3   136  PRO136      0.0207
     16  CD        13.0420   18.7880   80.2080 C.3   136  PRO136      0.0892
     17  N         15.8800   28.4020   81.0570 N.3   158  ILE158     -0.1245
     18  CA        16.8490   28.2330   79.9760 C.3   158  ILE158      0.1561
     19  C         16.0790   28.6210   78.7040 C.2   158  ILE158      0.2260
     20  O         14.9700   28.1300   78.4690 O.2   158  ILE158     -0.2867
     21  CB        17.3070   26.7590   79.8940 C.3   158  ILE158      0.0252
     22  CG1       18.1720   26.4090   81.0850 C.3   158  ILE158      0.0019
     23  CG2       18.0500   26.5250   78.6000 C.3   158  ILE158      0.0019
     24  CD1       19.5260   27.1110   81.2000 C.3   158  ILE158      0.0001
     25  N         16.6540   29.0170   74.4710 N.3   160  LYS160     -0.1245
     26  CA        17.5070   28.4960   73.4200 C.3   160  LYS160      0.1561
     27  C         16.8960   28.6330   72.0350 C.2   160  LYS160      0.2260
     28  O         15.6710   28.7270   71.9500 O.2   160  LYS160     -0.2867
     29  CB        17.7910   27.0390   73.6850 C.3   160  LYS160      0.0271
     30  CG        16.6220   26.1780   74.0130 C.3   160  LYS160      0.0035
     31  CD        17.2720   25.1810   74.9280 C.3   160  LYS160      0.0206
     32  CE        16.3830   24.0290   75.2740 C.3   160  LYS160      0.1093
     33  NZ        17.2440   23.0190   75.8570 N.3   160  LYS160     -0.1314
     34  N         20.4210   25.1540   66.3830 N.3   164  GLY164     -0.1210
     35  CA        21.8270   24.8570   66.6310 C.3   164  GLY164      0.1956
     36  C         21.9960   23.6530   67.5350 C.2   164  GLY164      0.2612
     37  O         21.0400   22.9930   67.9570 O.2   164  GLY164     -0.2717
     38  N         23.2580   23.4040   67.8120 N.am  165  MET165     -0.1965
     39  CA        23.6770   22.3240   68.6820 C.3   165  MET165      0.1736
     40  C         24.9410   22.8410   69.3700 C.2   165  MET165      0.2617
     41  O         25.3540   23.9850   69.1170 O.2   165  MET165     -0.2715
     42  CB        23.9780   21.0500   67.8710 C.3   165  MET165      0.0427
     43  CG        25.3080   20.8850   67.1300 C.3   165  MET165      0.0599
     44  SD        25.7260   22.2670   66.0290 S.3   165  MET165     -0.1393
     45  CE        27.4290   21.7930   65.8580 C.3   165  MET165      0.0692
     46  N         25.5580   22.0790   70.2870 N.am  166  GLY166     -0.1940
     47  CA        26.8080   22.5070   70.9070 C.3   166  GLY166      0.2014
     48  C         26.7460   23.7090   71.8720 C.2   166  GLY166      0.2639
     49  O         27.7880   24.2590   72.2460 O.2   166  GLY166     -0.2714
     50  N         25.5890   24.0760   72.4170 N.am  167  GLY167     -0.1939
     51  CA        25.5030   25.2090   73.3070 C.3   167  GLY167      0.2014
     52  C         25.3240   26.5100   72.5590 C.2   167  GLY167      0.2638
     53  O         25.5530   27.5920   73.1270 O.2   167  GLY167     -0.2714
     54  N         24.8400   26.4670   71.3130 N.am  168  ALA168     -0.1977
     55  CA        24.6350   27.6980   70.5600 C.3   168  ALA168      0.1597
     56  C         23.4790   28.4540   71.1830 C.2   168  ALA168      0.2287
     57  O         22.4140   27.8870   71.4160 O.2   168  ALA168     -0.2864
     58  CB        24.2880   27.4070   69.1000 C.3   168  ALA168      0.0319
     59  N         22.5900   29.5130   74.3600 N.3   170  ILE170     -0.1245
     60  CA        21.8220   29.1150   75.5360 C.3   170  ILE170      0.1561
     61  C         21.9180   30.2000   76.5950 C.2   170  ILE170      0.2260
     62  O         23.0090   30.5010   77.0800 O.2   170  ILE170     -0.2867
     63  CB        22.3550   27.8200   76.1150 C.3   170  ILE170      0.0252
     64  CG1       22.4420   26.7150   75.0710 C.3   170  ILE170      0.0019
     65  CG2       21.4530   27.4370   77.2530 C.3   170  ILE170      0.0019
     66  CD1       21.1630   26.0450   74.5750 C.3   170  ILE170      0.0001
     67  N         12.7070   26.5330   78.7340 N.3   198  GLN198     -0.1231
     68  CA        12.4900   25.3280   79.5110 C.3   198  GLN198      0.1698
     69  C         12.8350   25.7080   80.9140 C.2   198  GLN198      0.2592
     70  O         13.6860   26.5780   81.0950 O.2   198  GLN198     -0.2718
     71  CB        13.4270   24.1730   79.2570 C.3   198  GLN198      0.0381
     72  CG        13.5110   23.6220   77.8650 C.3   198  GLN198      0.0905
     73  CD        14.3160   22.3570   77.8470 C.2   198  GLN198      0.2608
     74  OE1       15.4500   22.2970   78.2920 O.2   198  GLN198     -0.2717
     75  NE2       13.7260   21.2830   77.3730 N.am  198  GLN198     -0.0878
     76  N         12.2790   25.0690   81.9350 N.am  199  ASN199     -0.1960
     77  CA        12.7060   25.4130   83.2890 C.3   199  ASN199      0.1819
     78  C         14.1040   24.8410   83.5100 C.2   199  ASN199      0.2621
     79  O         14.4700   23.8210   82.9350 O.2   199  ASN199     -0.2715
     80  CB        11.7420   24.8700   84.3780 C.3   199  ASN199      0.1195
     81  CG        11.4370   23.4000   84.2900 C.2   199  ASN199      0.2630
     82  OD1       10.8350   22.9550   83.3260 O.2   199  ASN199     -0.2716
     83  ND2       11.7560   22.5440   85.2320 N.am  199  ASN199     -0.0877
     84  N         14.9470   25.5590   84.2470 N.am  200  TYR200     -0.1960
     85  CA        16.3140   25.1470   84.4700 C.3   200  TYR200      0.1771
     86  C         16.3440   23.9200   85.3610 C.2   200  TYR200      0.2619
     87  O         15.5830   23.8140   86.3150 O.2   200  TYR200     -0.2715
     88  CB        17.0400   26.3360   85.0800 C.3   200  TYR200      0.0574
     89  CG        18.4400   26.0770   85.5990 C.ar  200  TYR200     -0.0198
     90  CD1       19.5290   26.0650   84.7260 C.ar  200  TYR200     -0.0009
     91  CD2       18.6150   25.8210   86.9710 C.ar  200  TYR200     -0.0009
     92  CE1       20.7990   25.7840   85.2340 C.ar  200  TYR200      0.0417
     93  CE2       19.8820   25.5460   87.4840 C.ar  200  TYR200      0.0417
     94  CZ        20.9730   25.5260   86.6140 C.ar  200  TYR200      0.1957
     95  OH        22.2440   25.2480   87.1260 O.3   200  TYR200     -0.2866
     96  N         17.2280   22.9940   85.0430 N.am  201  LEU201     -0.1977
     97  CA        17.3850   21.7470   85.7580 C.3   201  LEU201      0.1596
     98  C         18.6860   21.7670   86.5370 C.2   201  LEU201      0.2287
     99  O         19.7430   21.5580   85.9380 O.2   201  LEU201     -0.2864
    100  CB        17.3980   20.5850   84.7810 C.3   201  LEU201      0.0297
    101  CG        16.1590   20.3940   83.9280 C.3   201  LEU201      0.0022
    102  CD1       16.4310   19.3360   82.8980 C.3   201  LEU201      0.0001
    103  CD2       14.9960   19.9760   84.7880 C.3   201  LEU201      0.0001
    104  N         22.1460   19.7040   86.1210 N.3   204  ILE204     -0.1245
    105  CA        23.1960   19.8760   85.1450 C.3   204  ILE204      0.1561
    106  C         24.5670   19.8710   85.8040 C.2   204  ILE204      0.2260
    107  O         25.5560   19.5310   85.1790 O.2   204  ILE204     -0.2867
    108  CB        22.9040   21.1990   84.3530 C.3   204  ILE204      0.0252
    109  CG1       23.9360   21.4240   83.2410 C.3   204  ILE204      0.0019
    110  CG2       22.9240   22.3870   85.3010 C.3   204  ILE204      0.0019
    111  CD1       24.1430   20.2040   82.3130 C.3   204  ILE204      0.0001
    112  N         25.4190   16.7520   81.7330 N.3   208  ASP208     -0.1239
    113  CA        24.4390   16.5800   80.6850 C.3   208  ASP208      0.1674
    114  C         24.8590   15.2320   80.1060 C.2   208  ASP208      0.2266
    115  O         25.9140   15.1570   79.4770 O.2   208  ASP208     -0.2867
    116  CB        24.5800   17.7030   79.6210 C.3   208  ASP208      0.1410
    117  CG        23.5190   17.6930   78.5090 C.2   208  ASP208      0.3668
    118  OD1       23.0340   16.6450   78.1050 O.co2 208  ASP208     -0.2456
    119  OD2       23.1400   18.7430   78.0130 O.co2 208  ASP208     -0.2456
    120  N         28.4840   15.2830   80.5560 N.3   225  ARG225     -0.1245
    121  CA        29.2460   16.4570   80.1860 C.3   225  ARG225      0.1563
    122  C         29.0290   17.5070   81.2670 C.2   225  ARG225      0.2260
    123  O         27.9130   17.9900   81.5160 O.2   225  ARG225     -0.2867
    124  CB        28.7770   16.9760   78.8110 C.3   225  ARG225      0.0307
    125  CG        29.0910   16.0590   77.6380 C.3   225  ARG225      0.0489
    126  CD        27.8110   15.4400   77.1030 C.3   225  ARG225      0.2205
    127  NE        27.4830   16.0290   75.8240 N.pl3 225  ARG225     -0.0865
    128  CZ        26.2570   16.3310   75.4310 C.cat 225  ARG225      0.5346
    129  NH1       25.1570   16.1440   76.1570 N.pl3 225  ARG225      0.1354
    130  NH2       26.1680   16.8520   74.2320 N.pl3 225  ARG225      0.1354
    131  N         27.5500   27.9500   81.6210 N.3   232  THR232     -0.1203
    132  CA        26.2170   27.3930   81.6710 C.3   232  THR232      0.1994
    133  C         26.0680   26.2350   80.6860 C.2   232  THR232      0.2618
    134  O         25.0730   25.5050   80.7380 O.2   232  THR232     -0.2717
    135  CB        25.2630   28.5400   81.3530 C.3   232  THR232      0.1784
    136  OG1       25.6700   29.5590   82.2600 O.3   232  THR232     -0.2211
    137  CG2       23.7900   28.2300   81.5130 C.3   232  THR232      0.0376
    138  N         26.9970   26.0410   79.7430 N.am  233  ARG233     -0.1965
    139  CA        26.8500   24.9360   78.8090 C.3   233  ARG233      0.1729
    140  C         27.7070   23.7210   79.1550 C.2   233  ARG233      0.2617
    141  O         28.9180   23.8660   79.3580 O.2   233  ARG233     -0.2715
    142  CB        27.1740   25.4110   77.3890 C.3   233  ARG233      0.0348
    143  CG        26.0380   26.2720   76.9420 C.3   233  ARG233      0.0492
    144  CD        26.4450   27.7150   76.9900 C.3   233  ARG233      0.2205
    145  NE        26.9480   28.0400   75.6820 N.pl3 233  ARG233     -0.0865
    146  CZ        27.7440   29.0680   75.3800 C.cat 233  ARG233      0.5346
    147  NH1       28.2160   29.9570   76.2600 N.pl3 233  ARG233      0.1354
    148  NH2       28.0010   29.2390   74.0850 N.pl3 233  ARG233      0.1354
    149  N         27.0610   22.5460   79.2600 N.am  234  GLY234     -0.1940
    150  CA        27.7110   21.2710   79.4970 C.3   234  GLY234      0.2014
    151  C         28.4070   20.7310   78.2580 C.2   234  GLY234      0.2638
    152  O         29.3740   19.9940   78.3640 O.2   234  GLY234     -0.2714
    153  N         27.9230   21.0650   77.0630 N.am  235  ASN235     -0.1972
    154  CA        28.4870   20.6670   75.7720 C.3   235  ASN235      0.1688
    155  C         29.9900   20.6020   75.6750 C.2   235  ASN235      0.2292
    156  O         30.6470   21.5790   76.0220 O.2   235  ASN235     -0.2864
    157  CB        28.0900   21.6190   74.6630 C.3   235  ASN235      0.1181
    158  CG        26.5980   21.7430   74.5550 C.2   235  ASN235      0.2629
    159  OD1       25.9940   22.5600   75.2350 O.2   235  ASN235     -0.2716
    160  ND2       25.9650   20.9530   73.7090 N.am  235  ASN235     -0.0877
    161  N         20.1160   13.4620   74.9910 N.3   273  ASP273     -0.1239
    162  CA        20.7440   14.2960   75.9930 C.3   273  ASP273      0.1674
    163  C         19.9040   14.1480   77.2610 C.2   273  ASP273      0.2266
    164  O         18.7020   14.4150   77.1790 O.2   273  ASP273     -0.2867
    165  CB        20.7250   15.7340   75.5430 C.3   273  ASP273      0.1410
    166  CG        21.8620   16.1690   74.6490 C.2   273  ASP273      0.3668
    167  OD1       22.4400   15.3560   73.9400 O.co2 273  ASP273     -0.2456
    168  OD2       22.1590   17.3610   74.6680 O.co2 273  ASP273     -0.2456
    169  N         19.4540   15.2930   81.3920 N.3   275  ILE275     -0.1245
    170  CA        19.9950   16.0150   82.5260 C.3   275  ILE275      0.1561
    171  C         19.1290   15.4960   83.6750 C.2   275  ILE275      0.2260
    172  O         17.8980   15.6670   83.6910 O.2   275  ILE275     -0.2867
    173  CB        19.8180   17.5420   82.3800 C.3   275  ILE275      0.0252
    174  CG1       20.7430   18.1060   81.3270 C.3   275  ILE275      0.0019
    175  CG2       20.1150   18.1960   83.7050 C.3   275  ILE275      0.0019
    176  CD1       20.5350   19.6230   81.0880 C.3   275  ILE275      0.0001
    177  N         16.3530   16.4570   77.4590 N.3   280  THR280     -0.1203
    178  CA        16.3170   17.8230   76.9500 C.3   280  THR280      0.1994
    179  C         16.3600   17.9200   75.4310 C.2   280  THR280      0.2617
    180  O         15.6680   18.7850   74.9140 O.2   280  THR280     -0.2717
    181  CB        17.4520   18.5740   77.5820 C.3   280  THR280      0.1784
    182  OG1       18.6190   17.7820   77.4070 O.3   280  THR280     -0.2211
    183  CG2       17.1560   18.8670   79.0300 C.3   280  THR280      0.0376
    184  N         17.0570   17.0780   74.6620 N.am  281  GLU281     -0.1979
    185  CA        16.9600   17.1140   73.2210 C.3   281  GLU281      0.1602
    186  C         17.2830   15.7450   72.6410 C.2   281  GLU281      0.2287
    187  O         17.7660   14.8790   73.3800 O.2   281  GLU281     -0.2864
    188  CB        17.9080   18.1560   72.6700 C.3   281  GLU281      0.0415
    189  CG        19.3230   17.7310   72.4180 C.3   281  GLU281      0.1163
    190  CD        20.1920   18.8430   71.8860 C.2   281  GLU281      0.3649
    191  OE1       19.7510   19.6840   71.1070 O.co2 281  GLU281     -0.2457
    192  OE2       21.3480   18.8720   72.2810 O.co2 281  GLU281     -0.2457
@<TRIPOS>BOND
     1    45    44    1
     2    44    43    1
     3    34    35    1
     4    35    36    1
     5    43    42    1
     6    36    38   am
     7    36    37    2
     8    38    39    1
     9    42    39    1
    10    39    40    1
    11     1     2    1
    12    58    55    1
    13    41    40    2
    14    40    46   am
    15     3     2    1
    16     3     4    2
    17     2     5    1
    18     5     6    1
    19     6     7    1
    20     9     8    1
    21    46    47    1
    22    55    56    1
    23    55    54    1
    24    47    48    1
    25   191   190   ar
    26     7     8    1
    27    56    57    2
    28    54    52   am
    29    48    49    2
    30    48    50   am
    31   190   192   ar
    32   190   189    1
    33    28    27    2
    34    27    26    1
    35    50    51    1
    36   189   188    1
    37    52    53    2
    38    52    51    1
    39   186   185    1
    40   186   187    2
    41   188   185    1
    42   185   184    1
    43    26    29    1
    44    26    25    1
    45    29    30    1
    46   160   158   am
    47   167   166   ar
    48    30    31    1
    49   148   146    1
    50   130   128    1
    51    59    60    1
    52   158   157    1
    53   158   159    2
    54    66    64    1
    55   166   168   ar
    56   166   165    1
    57   184   179   am
    58   157   154    1
    59   180   179    2
    60    31    32    1
    61   161   162    1
    62    64    63    1
    63    32    33    1
    64   146   145    2
    65   146   147    1
    66   179   178    1
    67   128   127    2
    68   128   129    1
    69    60    63    1
    70    60    61    1
    71   165   162    1
    72   155   154    1
    73   155   156    2
    74   145   144    1
    75   154   153    1
    76   127   126    1
    77   162   163    1
    78    63    65    1
    79    61    62    2
    80   143   144    1
    81   143   142    1
    82   178   177    1
    83   178   181    1
    84   153   151   am
    85   126   125    1
    86   164   163    2
    87    75    73   am
    88   142   139    1
    89   182   181    1
    90   181   183    1
    91   125   124    1
    92    73    72    1
    93    73    74    2
    94    72    71    1
    95   119   117   ar
    96   118   117   ar
    97   151   152    2
    98   151   150    1
    99    20    19    2
   100   117   116    1
   101    23    21    1
   102    19    18    1
   103    67    68    1
   104   139   140    1
   105   139   138    1
   106   124   121    1
   107   140   149   am
   108   140   141    2
   109    71    68    1
   110   149   150    1
   111   115   114    2
   112    68    69    1
   113   116   113    1
   114   138   133   am
   115    13    12    2
   116    21    18    1
   117    21    22    1
   118    18    17    1
   119   114   113    1
   120   121   120    1
   121   121   122    1
   122    16    15    1
   123    16    10    1
   124    15    14    1
   125    10    11    1
   126   113   112    1
   127   133   134    2
   128   133   132    1
   129    12    11    1
   130    69    70    2
   131    69    76   am
   132    22    24    1
   133   176   174    1
   134   122   123    2
   135   174   173    1
   136   135   137    1
   137   135   132    1
   138   135   136    1
   139   169   170    1
   140    11    14    1
   141   131   132    1
   142    76    77    1
   143   111   109    1
   144   173   170    1
   145   173   175    1
   146   170   171    1
   147   102   101    1
   148    79    78    2
   149   109   108    1
   150    77    78    1
   151    77    80    1
   152    82    81    2
   153    78    84   am
   154   171   172    2
   155   101   100    1
   156   101   103    1
   157    84    85    1
   158    81    80    1
   159    81    83   am
   160   108   105    1
   161   108   110    1
   162    85    88    1
   163    85    86    1
   164    90    92   ar
   165    90    89   ar
   166   100    97    1
   167    96    86   am
   168    96    97    1
   169    88    89    1
   170   105   106    1
   171   105   104    1
   172   107   106    2
   173    92    94   ar
   174    86    87    2
   175    89    91   ar
   176    97    98    1
   177    99    98    2
   178    94    95    1
   179    94    93   ar
   180    91    93   ar
