@<TRIPOS>MOLECULE
tmp/1gsfD00.pdb
 132 126 0 0 0
SMALL
GASTEIGER

@<TRIPOS>ATOM
      1  N         84.4420   35.1940   57.6740 N.3     8  TYR8       -0.1227
      2  CA        84.8110   34.5530   58.9270 C.3     8  TYR8        0.1736
      3  C         86.1970   35.0000   59.3580 C.2     8  TYR8        0.2595
      4  O         86.7760   35.9040   58.7620 O.2     8  TYR8       -0.2718
      5  CB        84.7870   33.0340   58.7800 C.3     8  TYR8        0.0548
      6  CG        84.7090   32.2650   60.0920 C.ar    8  TYR8       -0.0200
      7  CD1       83.6640   32.4770   60.9890 C.ar    8  TYR8       -0.0009
      8  CD2       85.6450   31.2830   60.4060 C.ar    8  TYR8       -0.0009
      9  CE1       83.5530   31.7190   62.1440 C.ar    8  TYR8        0.0417
     10  CE2       85.5350   30.5300   61.5590 C.ar    8  TYR8        0.0417
     11  CZ        84.4860   30.7520   62.4140 C.ar    8  TYR8        0.1957
     12  OH        84.3320   29.9630   63.5170 O.3     8  TYR8       -0.2866
     13  N         86.6570   34.4410   60.4730 N.am    9  PHE9       -0.1976
     14  CA        87.9740   34.7140   61.0210 C.3     9  PHE9        0.1639
     15  C         88.9150   33.8780   60.1560 C.2     9  PHE9        0.2290
     16  O         88.4790   32.9540   59.4780 O.2     9  PHE9       -0.2864
     17  CB        88.0050   34.2370   62.4810 C.3     9  PHE9        0.0560
     18  CG        89.3130   34.4820   63.1930 C.ar    9  PHE9       -0.0200
     19  CD1       89.8230   35.7740   63.3370 C.ar    9  PHE9       -0.0042
     20  CD2       90.0140   33.4210   63.7720 C.ar    9  PHE9       -0.0042
     21  CE1       91.0130   36.0010   64.0420 C.ar    9  PHE9       -0.0003
     22  CE2       91.2020   33.6400   64.4770 C.ar    9  PHE9       -0.0003
     23  CZ        91.7020   34.9330   64.6170 C.ar    9  PHE9       -0.0000
     24  N         90.5630   31.2700   60.1480 N.3    11  ALA11      -0.1245
     25  CA        90.8020   30.0390   60.8830 C.3    11  ALA11       0.1562
     26  C         89.8300   28.9270   60.5220 C.2    11  ALA11       0.2260
     27  O         88.8700   29.1300   59.7720 O.2    11  ALA11      -0.2867
     28  CB        90.7530   30.3070   62.3740 C.3    11  ALA11       0.0290
     29  N         87.7620   26.8850   62.6890 N.3    13  GLY13      -0.1210
     30  CA        86.4980   27.2250   63.3190 C.3    13  GLY13       0.1956
     31  C         85.2780   26.5410   62.7490 C.2    13  GLY13       0.2611
     32  O         85.3230   25.3570   62.3970 O.2    13  GLY13      -0.2717
     33  N         84.2040   27.3210   62.6060 N.am   14  ARG14      -0.1979
     34  CA        82.9250   26.8360   62.0970 C.3    14  ARG14       0.1597
     35  C         82.7250   26.9270   60.5930 C.2    14  ARG14       0.2287
     36  O         81.7120   26.4530   60.0770 O.2    14  ARG14      -0.2864
     37  CB        81.7890   27.5730   62.7960 C.3    14  ARG14       0.0334
     38  CG        81.7360   27.2860   64.2770 C.3    14  ARG14       0.0492
     39  CD        80.4250   27.6810   64.9280 C.3    14  ARG14       0.2205
     40  NE        80.4550   27.3150   66.3440 N.pl3  14  ARG14      -0.0865
     41  CZ        80.3770   26.0640   66.8130 C.cat  14  ARG14       0.5346
     42  NH1       80.2400   25.0320   65.9790 N.pl3  14  ARG14       0.1354
     43  NH2       80.5330   25.8350   68.1210 N.pl3  14  ARG14       0.1354
     44  N         75.7670   36.7860   64.3640 N.3    53  GLN53      -0.1231
     45  CA        76.9970   36.0020   64.3140 C.3    53  GLN53       0.1698
     46  C         77.4530   35.6090   62.9210 C.2    53  GLN53       0.2592
     47  O         76.7630   35.8560   61.9380 O.2    53  GLN53      -0.2718
     48  CB        76.8050   34.7060   65.0920 C.3    53  GLN53       0.0381
     49  CG        76.2640   34.8480   66.4850 C.3    53  GLN53       0.0905
     50  CD        75.5760   33.5720   66.9470 C.2    53  GLN53       0.2608
     51  OE1       74.5250   33.1990   66.4200 O.2    53  GLN53      -0.2717
     52  NE2       76.1680   32.8900   67.9230 N.am   53  GLN53      -0.0878
     53  N         78.6260   34.9760   62.8690 N.am   54  VAL54      -0.1980
     54  CA        79.2070   34.4520   61.6390 C.3    54  VAL54       0.1595
     55  C         79.4360   32.9830   61.9830 C.2    54  VAL54       0.2287
     56  O         79.3460   32.6170   63.1440 O.2    54  VAL54      -0.2864
     57  CB        80.5580   35.1220   61.2860 C.3    54  VAL54       0.0276
     58  CG1       80.3540   36.5700   60.8910 C.3    54  VAL54       0.0022
     59  CG2       81.5260   35.0200   62.4490 C.3    54  VAL54       0.0022
     60  N         86.3950   20.0270   68.0510 N.3   106  LEU106     -0.1231
     61  CA        86.5030   21.4580   67.8120 C.3   106  LEU106      0.1693
     62  C         86.6860   22.2860   69.0750 C.2   106  LEU106      0.2591
     63  O         87.3830   23.2960   69.0680 O.2   106  LEU106     -0.2718
     64  CB        85.2470   21.9480   67.0820 C.3   106  LEU106      0.0284
     65  CG        85.1980   23.4370   66.7500 C.3   106  LEU106      0.0019
     66  CD1       85.9390   23.6400   65.4510 C.3   106  LEU106      0.0001
     67  CD2       83.7710   23.9510   66.6350 C.3   106  LEU106      0.0001
     68  N         86.0320   21.8800   70.1500 N.am  107  LEU107     -0.1980
     69  CA        86.0960   22.6320   71.3940 C.3   107  LEU107      0.1596
     70  C         87.2620   22.2660   72.3030 C.2   107  LEU107      0.2287
     71  O         87.5450   22.9690   73.2780 O.2   107  LEU107     -0.2864
     72  CB        84.7780   22.4900   72.1480 C.3   107  LEU107      0.0297
     73  CG        83.5290   22.7880   71.3230 C.3   107  LEU107      0.0022
     74  CD1       82.3140   22.6080   72.2010 C.3   107  LEU107      0.0001
     75  CD2       83.5880   24.1940   70.7360 C.3   107  LEU107      0.0001
     76  N         90.4100   22.7080   72.1480 N.3   109  PRO109     -0.2102
     77  CA        91.3680   23.7830   72.4230 C.3   109  PRO109      0.1504
     78  C         90.9550   24.7040   73.5610 C.2   109  PRO109      0.2575
     79  O         91.7900   25.1540   74.3370 O.2   109  PRO109     -0.2718
     80  CB        91.3940   24.5560   71.1100 C.3   109  PRO109      0.0282
     81  CG        91.1540   23.5060   70.1070 C.3   109  PRO109      0.0208
     82  CD        90.0290   22.7240   70.7260 C.3   109  PRO109      0.0893
     83  N         89.6660   24.9940   73.6520 N.am  110  VAL110     -0.1980
     84  CA        89.1650   25.8830   74.6850 C.3   110  VAL110      0.1595
     85  C         88.6770   25.0990   75.9080 C.2   110  VAL110      0.2287
     86  O         87.9690   25.6190   76.7640 O.2   110  VAL110     -0.2864
     87  CB        88.0900   26.8410   74.0800 C.3   110  VAL110      0.0276
     88  CG1       87.5070   27.7870   75.1270 C.3   110  VAL110      0.0022
     89  CG2       88.7380   27.6800   72.9950 C.3   110  VAL110      0.0022
     90  N         94.2340   25.0650   64.7440 N.3   207  MET207     -0.1245
     91  CA        94.3930   26.2440   65.5860 C.3   207  MET207      0.1570
     92  C         95.4410   26.0610   66.6930 C.2   207  MET207      0.2261
     93  O         95.6320   24.9600   67.2230 O.2   207  MET207     -0.2867
     94  CB        93.0460   26.6370   66.1780 C.3   207  MET207      0.0387
     95  CG        93.0540   27.9690   66.8660 C.3   207  MET207      0.0595
     96  SD        91.3980   28.5990   66.8940 S.3   207  MET207     -0.1393
     97  CE        91.5920   30.1550   66.0330 C.3   207  MET207      0.0692
     98  N         94.0770   31.5920   68.7190 N.3   212  LEU212     -0.1245
     99  CA        92.9390   31.4150   69.6250 C.3   212  LEU212      0.1561
    100  C         92.7410   32.6390   70.4820 C.2   212  LEU212      0.2260
    101  O         91.6090   32.9940   70.8260 O.2   212  LEU212     -0.2867
    102  CB        93.1400   30.1980   70.5290 C.3   212  LEU212      0.0270
    103  CG        92.0560   29.9320   71.5780 C.3   212  LEU212      0.0019
    104  CD1       90.6660   29.9580   70.9520 C.3   212  LEU212      0.0001
    105  CD2       92.3160   28.5860   72.2240 C.3   212  LEU212      0.0001
    106  N         91.1920   35.4250   68.2660 N.3   215  ALA215     -0.1245
    107  CA        89.7880   35.0990   68.0150 C.3   215  ALA215      0.1562
    108  C         88.8680   35.3700   69.2080 C.2   215  ALA215      0.2260
    109  O         87.9200   36.1520   69.0930 O.2   215  ALA215     -0.2867
    110  CB        89.6510   33.6350   67.5620 C.3   215  ALA215      0.0290
    111  N         85.5740   37.7990   68.9050 N.3   219  PHE219     -0.1241
    112  CA        84.2950   37.1390   69.1150 C.3   219  PHE219      0.1605
    113  C         83.8940   37.1140   70.5710 C.2   219  PHE219      0.2264
    114  O         82.7020   37.0660   70.8790 O.2   219  PHE219     -0.2867
    115  CB        84.3320   35.7170   68.5470 C.3   219  PHE219      0.0534
    116  CG        84.5490   35.6650   67.0540 C.ar  219  PHE219     -0.0203
    117  CD1       83.7020   36.3550   66.1900 C.ar  219  PHE219     -0.0042
    118  CD2       85.6270   34.9700   66.5100 C.ar  219  PHE219     -0.0042
    119  CE1       83.9200   36.3450   64.8050 C.ar  219  PHE219     -0.0003
    120  CE2       85.8490   34.9560   65.1220 C.ar  219  PHE219     -0.0003
    121  CZ        84.9970   35.6500   64.2750 C.ar  219  PHE219     -0.0000
    122  N         84.9070   34.9300   73.7540 N.3   221  PHE221     -0.1241
    123  CA        84.4860   33.6140   74.2270 C.3   221  PHE221      0.1605
    124  C         85.6240   32.9580   75.0130 C.2   221  PHE221      0.2264
    125  O         85.5430   31.7260   75.2810 O.2   221  PHE221     -0.2867
    126  CB        84.0220   32.7200   73.0530 C.3   221  PHE221      0.0534
    127  CG        85.0940   32.4220   72.0160 C.ar  221  PHE221     -0.0203
    128  CD1       86.1010   31.4710   72.2710 C.ar  221  PHE221     -0.0042
    129  CD2       85.0720   33.0620   70.7710 C.ar  221  PHE221     -0.0042
    130  CE1       87.0620   31.1590   71.3100 C.ar  221  PHE221     -0.0003
    131  CE2       86.0300   32.7610   69.7950 C.ar  221  PHE221     -0.0003
    132  CZ        87.0310   31.8030   70.0670 C.ar  221  PHE221     -0.0000
@<TRIPOS>BOND
     1     1     2    1
     2     4     3    2
     3     5     2    1
     4     5     6    1
     5     2     3    1
     6     3    13   am
     7    16    15    2
     8    27    26    2
     9    36    35    2
    10     6     8   ar
    11     6     7   ar
    12    24    25    1
    13    15    14    1
    14     8    10   ar
    15    13    14    1
    16    26    25    1
    17    35    34    1
    18    25    28    1
    19    58    57    1
    20     7     9   ar
    21    14    17    1
    22    57    54    1
    23    57    59    1
    24    10    11   ar
    25    54    55    1
    26    54    53    1
    27    47    46    2
    28    55    56    2
    29    34    33    1
    30    34    37    1
    31     9    11   ar
    32    32    31    2
    33    11    12    1
    34    17    18    1
    35    33    31   am
    36    29    30    1
    37    31    30    1
    38    37    38    1
    39    53    46   am
    40    46    45    1
    41    18    19   ar
    42    18    20   ar
    43    19    21   ar
    44    20    22   ar
    45    21    23   ar
    46   121   119   ar
    47   121   120   ar
    48    38    39    1
    49    45    44    1
    50    45    48    1
    51    22    23   ar
    52    90    91    1
    53   119   117   ar
    54    39    40    1
    55    48    49    1
    56   120   118   ar
    57    66    65    1
    58    91    94    1
    59    91    92    1
    60    42    41    1
    61    97    96    1
    62    94    95    1
    63   117   116   ar
    64    40    41    2
    65    51    50    2
    66    49    50    1
    67   118   116   ar
    68    67    65    1
    69    92    93    2
    70    65    64    1
    71    41    43    1
    72    95    96    1
    73    50    52   am
    74   116   115    1
    75    64    61    1
    76   110   107    1
    77    61    60    1
    78    61    62    1
    79   107   106    1
    80   107   108    1
    81   115   112    1
    82    98    99    1
    83   111   112    1
    84    63    62    2
    85    62    68   am
    86   109   108    2
    87   112   113    1
    88    99   100    1
    89    99   102    1
    90   131   132   ar
    91   131   129   ar
    92   132   130   ar
    93    81    82    1
    94    81    80    1
    95    68    69    1
    96   100   101    2
    97   102   103    1
    98   113   114    2
    99    82    76    1
   100    75    73    1
   101   129   127   ar
   102   104   103    1
   103    80    77    1
   104   130   128   ar
   105    73    72    1
   106    73    74    1
   107    69    72    1
   108    69    70    1
   109   103   105    1
   110   127   128   ar
   111   127   126    1
   112    76    77    1
   113    70    71    2
   114    77    78    1
   115    89    87    1
   116   126   123    1
   117    78    83   am
   118    78    79    2
   119    83    84    1
   120   122   123    1
   121    87    84    1
   122    87    88    1
   123   123   124    1
   124    84    85    1
   125   124   125    2
   126    85    86    2
