@<TRIPOS>MOLECULE
tmp/1gslA00.pdb
 131 131 0 0 0
SMALL
GASTEIGER

@<TRIPOS>ATOM
      1  N         36.2770   24.5110   32.1310 N.3    47  ARG47      -0.1231
      2  CA        35.4610   23.2980   31.9330 C.3    47  ARG47       0.1694
      3  C         33.9820   23.5250   32.2710 C.2    47  ARG47       0.2592
      4  O         33.6340   24.4720   32.9720 O.2    47  ARG47      -0.2718
      5  CB        35.9620   22.1230   32.7900 C.3    47  ARG47       0.0321
      6  CG        37.3120   21.5540   32.4280 C.3    47  ARG47       0.0489
      7  CD        37.5710   20.2620   33.2030 C.3    47  ARG47       0.2205
      8  NE        38.8680   19.6720   32.8600 N.pl3  47  ARG47      -0.0865
      9  CZ        39.0400   18.4760   32.2930 C.cat  47  ARG47       0.5346
     10  NH1       37.9960   17.7040   32.0040 N.pl3  47  ARG47       0.1354
     11  NH2       40.2660   18.0470   32.0170 N.pl3  47  ARG47       0.1354
     12  N         33.1240   22.6320   31.7900 N.am   48  SER48      -0.1952
     13  CA        31.6860   22.7100   32.0350 C.3    48  SER48       0.1924
     14  C         31.1020   24.0970   31.8640 C.2    48  SER48       0.2314
     15  O         30.7240   24.7360   32.8410 O.2    48  SER48      -0.2863
     16  CB        31.3510   22.2090   33.4420 C.3    48  SER48       0.2116
     17  OG        31.9880   20.9770   33.7110 O.3    48  SER48      -0.2180
     18  N         36.3670   18.8210   23.7050 N.3    87  ALA87      -0.1231
     19  CA        34.9220   18.6210   23.8270 C.3    87  ALA87       0.1694
     20  C         34.3030   19.9800   24.1930 C.2    87  ALA87       0.2592
     21  O         34.9600   20.7650   24.8790 O.2    87  ALA87      -0.2718
     22  CB        34.6370   17.5830   24.9070 C.3    87  ALA87       0.0304
     23  N         33.0430   20.2550   23.8200 N.am   88  ASP88      -0.1974
     24  CA        32.1590   19.3540   23.0770 C.3    88  ASP88       0.1709
     25  C         31.7330   19.7420   21.6530 C.2    88  ASP88       0.2293
     26  O         31.1810   18.9000   20.9320 O.2    88  ASP88      -0.2864
     27  CB        30.9010   19.1180   23.8950 C.3    88  ASP88       0.1436
     28  CG        31.1300   18.1680   25.0350 C.2    88  ASP88       0.3671
     29  OD1       31.0490   16.9570   24.7970 O.co2  88  ASP88      -0.2456
     30  OD2       31.3860   18.6230   26.1660 O.co2  88  ASP88      -0.2456
     31  N         25.4160   21.9570   29.7270 N.3   104  TYR104     -0.1227
     32  CA        26.7020   22.0680   29.0780 C.3   104  TYR104      0.1736
     33  C         27.2040   20.7020   28.6590 C.2   104  TYR104      0.2596
     34  O         26.4740   19.7180   28.7230 O.2   104  TYR104     -0.2718
     35  CB        27.7020   22.7840   29.9710 C.3   104  TYR104      0.0548
     36  CG        27.7200   22.3030   31.3840 C.ar  104  TYR104     -0.0200
     37  CD1       28.0330   20.9850   31.6850 C.ar  104  TYR104     -0.0009
     38  CD2       27.4610   23.1770   32.4290 C.ar  104  TYR104     -0.0009
     39  CE1       28.0980   20.5510   32.9860 C.ar  104  TYR104      0.0417
     40  CE2       27.5210   22.7520   33.7370 C.ar  104  TYR104      0.0417
     41  CZ        27.8430   21.4380   34.0080 C.ar  104  TYR104      0.1957
     42  OH        27.9310   21.0150   35.3100 O.3   104  TYR104     -0.2866
     43  N         28.4430   20.6350   28.2070 N.am  105  GLY105     -0.1942
     44  CA        28.9760   19.3620   27.7850 C.3   105  GLY105      0.2014
     45  C         28.3710   18.9470   26.4550 C.2   105  GLY105      0.2639
     46  O         27.9980   19.8070   25.6520 O.2   105  GLY105     -0.2714
     47  N         28.2590   17.6390   26.2330 N.am  106  GLY106     -0.1939
     48  CA        27.7020   17.1030   25.0010 C.3   106  GLY106      0.2014
     49  C         26.3280   17.5680   24.5230 C.2   106  GLY106      0.2638
     50  O         25.9270   17.2530   23.3950 O.2   106  GLY106     -0.2714
     51  N         25.5940   18.2880   25.3630 N.am  107  PHE107     -0.1973
     52  CA        24.2740   18.7780   24.9880 C.3   107  PHE107      0.1639
     53  C         24.3280   20.0930   24.2190 C.2   107  PHE107      0.2290
     54  O         23.2890   20.6190   23.7920 O.2   107  PHE107     -0.2864
     55  CB        23.3950   18.8990   26.2310 C.3   107  PHE107      0.0560
     56  CG        23.2330   17.6040   26.9520 C.ar  107  PHE107     -0.0200
     57  CD1       22.5810   16.5480   26.3440 C.ar  107  PHE107     -0.0042
     58  CD2       23.7960   17.4170   28.1950 C.ar  107  PHE107     -0.0042
     59  CE1       22.4960   15.3350   26.9550 C.ar  107  PHE107     -0.0003
     60  CE2       23.7130   16.1960   28.8170 C.ar  107  PHE107     -0.0003
     61  CZ        23.0620   15.1530   28.1940 C.ar  107  PHE107     -0.0000
     62  N         19.8430   17.1070   30.2130 N.3   113  HIS113     -0.1241
     63  CA        20.1710   15.6920   30.3290 C.3   113  HIS113      0.1621
     64  C         18.9490   14.7490   30.3630 C.2   113  HIS113      0.2264
     65  O         18.9150   13.7490   29.6520 O.2   113  HIS113     -0.2867
     66  CB        21.0220   15.4890   31.5840 C.3   113  HIS113      0.0745
     67  CG        21.4910   14.0830   31.7760 C.ar  113  HIS113      0.0817
     68  ND1       22.5230   13.5330   31.0440 N.ar  113  HIS113     -0.2268
     69  CD2       21.0640   13.1080   32.6160 C.ar  113  HIS113      0.1154
     70  CE1       22.7090   12.2800   31.4210 C.ar  113  HIS113      0.1986
     71  NE2       21.8370   11.9970   32.3730 N.ar  113  HIS113     -0.2212
     72  N         33.3240   15.6700   20.4050 N.3   132  TRP132     -0.1241
     73  CA        33.4320   14.5700   21.3660 C.3   132  TRP132      0.1605
     74  C         32.4410   13.4320   21.1950 C.2   132  TRP132      0.2264
     75  O         31.2250   13.6370   21.1420 O.2   132  TRP132     -0.2867
     76  CB        33.3200   15.1210   22.7970 C.3   132  TRP132      0.0550
     77  CG        33.4780   14.0960   23.8910 C.ar  132  TRP132      0.0003
     78  CD1       32.4790   13.4440   24.5570 C.ar  132  TRP132      0.0946
     79  CD2       34.7070   13.6520   24.4800 C.ar  132  TRP132      0.0152
     80  NE1       33.0070   12.6280   25.5290 N.ar  132  TRP132     -0.2442
     81  CE2       34.3730   12.7380   25.5020 C.ar  132  TRP132      0.0810
     82  CE3       36.0550   13.9380   24.2420 C.ar  132  TRP132      0.0012
     83  CZ2       35.3380   12.1110   26.2870 C.ar  132  TRP132      0.0191
     84  CZ3       37.0140   13.3130   25.0210 C.ar  132  TRP132      0.0001
     85  CH2       36.6500   12.4120   26.0320 C.ar  132  TRP132      0.0015
     86  N         30.1870   10.8470   22.4100 N.3   134  ASN134     -0.1240
     87  CA        29.4270   10.4930   23.5970 C.3   134  ASN134      0.1653
     88  C         28.8300    9.1450   23.2320 C.2   134  ASN134      0.2266
     89  O         27.8260    9.0940   22.5280 O.2   134  ASN134     -0.2867
     90  CB        28.3000   11.4880   23.8660 C.3   134  ASN134      0.1155
     91  CG        28.8080   12.8690   24.1840 C.2   134  ASN134      0.2627
     92  OD1       29.1320   13.6250   23.2850 O.2   134  ASN134     -0.2716
     93  ND2       28.8680   13.2120   25.4600 N.am  134  ASN134     -0.0877
     94  N         27.3340    7.1710   25.0330 N.3   136  ASP136     -0.1225
     95  CA        26.0130    7.1240   25.6560 C.3   136  ASP136      0.1805
     96  C         24.8540    7.8620   24.9760 C.2   136  ASP136      0.2597
     97  O         23.7130    7.7360   25.4120 O.2   136  ASP136     -0.2718
     98  CB        26.0930    7.5060   27.1490 C.3   136  ASP136      0.1424
     99  CG        26.6920    8.8860   27.3810 C.2   136  ASP136      0.3668
    100  OD1       27.7090    9.2170   26.7330 O.co2 136  ASP136     -0.2456
    101  OD2       26.1510    9.6330   28.2270 O.co2 136  ASP136     -0.2456
    102  N         25.1210    8.6460   23.9360 N.am  137  TRP137     -0.1976
    103  CA        24.0420    9.3660   23.2520 C.3   137  TRP137      0.1640
    104  C         24.0390    9.0740   21.7520 C.2   137  TRP137      0.2290
    105  O         23.4950    9.8350   20.9530 O.2   137  TRP137     -0.2864
    106  CB        24.1040   10.8770   23.5120 C.3   137  TRP137      0.0576
    107  CG        23.8390   11.2740   24.9300 C.ar  137  TRP137      0.0006
    108  CD1       24.7660   11.6380   25.8640 C.ar  137  TRP137      0.0946
    109  CD2       22.5650   11.3690   25.5780 C.ar  137  TRP137      0.0152
    110  NE1       24.1510   11.9620   27.0520 N.ar  137  TRP137     -0.2442
    111  CE2       22.7990   11.8020   26.9040 C.ar  137  TRP137      0.0810
    112  CE3       21.2530   11.1330   25.1720 C.ar  137  TRP137      0.0012
    113  CZ2       21.7680   12.0020   27.8200 C.ar  137  TRP137      0.0191
    114  CZ3       20.2270   11.3350   26.0880 C.ar  137  TRP137      0.0001
    115  CH2       20.4910   11.7650   27.3940 C.ar  137  TRP137      0.0015
    116  N         32.7660   20.5990   28.7280 N.3   221  GLY221     -0.1210
    117  CA        33.8040   20.0810   27.8450 C.3   221  GLY221      0.1956
    118  C         35.1750   20.4660   28.3980 C.2   221  GLY221      0.2611
    119  O         35.2940   20.8200   29.5810 O.2   221  GLY221     -0.2717
    120  N         36.2020   20.4420   27.5570 N.am  222  TYR222     -0.1976
    121  CA        37.5350   20.7990   28.0160 C.3   222  TYR222      0.1639
    122  C         38.4610   21.1440   26.8530 C.2   222  TYR222      0.2290
    123  O         38.2590   20.6600   25.7300 O.2   222  TYR222     -0.2864
    124  CB        38.1390   19.6590   28.8780 C.3   222  TYR222      0.0560
    125  CG        38.4990   18.3900   28.1210 C.ar  222  TYR222     -0.0198
    126  CD1       37.5580   17.3970   27.8960 C.ar  222  TYR222     -0.0009
    127  CD2       39.7720   18.2080   27.6040 C.ar  222  TYR222     -0.0009
    128  CE1       37.8730   16.2650   27.1690 C.ar  222  TYR222      0.0417
    129  CE2       40.0960   17.0810   26.8810 C.ar  222  TYR222      0.0417
    130  CZ        39.1430   16.1140   26.6630 C.ar  222  TYR222      0.1957
    131  OH        39.4600   14.9980   25.9230 O.3   222  TYR222     -0.2866
@<TRIPOS>BOND
     1    72    73    1
     2    26    25    2
     3   105   104    2
     4    75    74    2
     5    74    73    1
     6    73    76    1
     7    25    24    1
     8   104   103    1
     9    86    87    1
    10    89    88    2
    11    76    77    1
    12    24    23    1
    13    24    27    1
    14    88    87    1
    15   103   106    1
    16   103   102    1
    17    92    91    2
    18    50    49    2
    19   106   107    1
    20    87    90    1
    21    18    19    1
    22    54    53    2
    23    23    20   am
    24    19    20    1
    25    19    22    1
    26    90    91    1
    27    77    79   ar
    28    77    78   ar
    29    27    28    1
    30   102    96   am
    31    91    93   am
    32    20    21    2
    33    53    52    1
    34    82    79   ar
    35    82    84   ar
    36    79    81   ar
    37    49    48    1
    38    49    51   am
    39    78    80   ar
    40    29    28   ar
    41   107   109   ar
    42   107   108   ar
    43    96    97    2
    44    96    95    1
    45    52    51    1
    46    52    55    1
    47    48    47    1
    48    84    85   ar
    49    94    95    1
    50    28    30   ar
    51   112   109   ar
    52   112   114   ar
    53    81    80   ar
    54    81    83   ar
    55   109   111   ar
    56    46    45    2
    57    95    98    1
    58   123   122    2
    59   108   110   ar
    60   131   130    1
    61    85    83   ar
    62   114   115   ar
    63    55    56    1
    64    47    45   am
    65    57    56   ar
    66    57    59   ar
    67    45    44    1
    68   130   129   ar
    69   130   128   ar
    70   100    99   ar
    71   122   121    1
    72   129   127   ar
    73   111   110   ar
    74   111   113   ar
    75    56    58   ar
    76    59    61   ar
    77    98    99    1
    78   128   126   ar
    79    99   101   ar
    80   115   113   ar
    81   120   121    1
    82   120   118   am
    83   127   125   ar
    84    44    43    1
    85   117   118    1
    86   117   116    1
    87   126   125   ar
    88   121   124    1
    89   125   124    1
    90    61    60   ar
    91    58    60   ar
    92    43    33   am
    93   118   119    2
    94    33    34    2
    95    33    32    1
    96    32    31    1
    97    32    35    1
    98    65    64    2
    99    35    36    1
   100    62    63    1
   101    63    64    1
   102    63    66    1
   103    68    70   ar
   104    68    67   ar
   105    36    37   ar
   106    36    38   ar
   107    70    71   ar
   108    66    67    1
   109    37    39   ar
   110    67    69   ar
   111    12    13    1
   112    12     3   am
   113    14    13    1
   114    14    15    2
   115     2     1    1
   116     2     3    1
   117     2     5    1
   118    10     9    1
   119    11     9    1
   120    13    16    1
   121     3     4    2
   122     9     8    2
   123    71    69   ar
   124     6     5    1
   125     6     7    1
   126    38    40   ar
   127     8     7    1
   128    39    41   ar
   129    16    17    1
   130    40    41   ar
   131    41    42    1
