@<TRIPOS>MOLECULE
tmp/1gslA01.pdb
 81 78 0 0 0
SMALL
GASTEIGER

@<TRIPOS>ATOM
      1  N         24.0830   44.3270   25.0320 N.3    17  ASN17      -0.1225
      2  CA        23.5030   42.9880   25.0410 C.3    17  ASN17       0.1785
      3  C         22.0200   43.0920   24.7500 C.2    17  ASN17       0.2597
      4  O         21.3340   43.9410   25.3180 O.2    17  ASN17      -0.2718
      5  CB        23.6920   42.3140   26.4010 C.3    17  ASN17       0.1169
      6  CG        22.9330   40.9850   26.5150 C.2    17  ASN17       0.2627
      7  OD1       23.0230   40.1370   25.6150 O.2    17  ASN17      -0.2716
      8  ND2       22.1830   40.8160   27.6100 N.am   17  ASN17      -0.0877
      9  N         21.5500   42.2960   23.7950 N.am   18  GLY18      -0.1957
     10  CA        20.1440   42.3190   23.4510 C.3    18  GLY18       0.1869
     11  C         19.6550   43.2730   22.3870 C.2    18  GLY18       0.2309
     12  O         18.4580   43.3210   22.1370 O.2    18  GLY18      -0.2863
     13  N         21.9260   38.7320   21.2760 N.3    22  THR22      -0.1203
     14  CA        21.6780   38.4610   22.6830 C.3    22  THR22       0.1994
     15  C         22.6120   37.3570   23.1210 C.2    22  THR22       0.2618
     16  O         22.7680   36.3690   22.4090 O.2    22  THR22      -0.2717
     17  CB        20.2190   38.0110   22.8940 C.3    22  THR22       0.1784
     18  OG1       19.3360   39.0540   22.4640 O.3    22  THR22      -0.2211
     19  CG2       19.9520   37.6870   24.3500 C.3    22  THR22       0.0376
     20  N         23.2830   37.5490   24.2510 N.am   23  PHE23      -0.1961
     21  CA        24.2040   36.5500   24.7630 C.3    23  PHE23       0.1771
     22  C         23.5930   35.9210   26.0050 C.2    23  PHE23       0.2619
     23  O         23.0650   36.6310   26.8500 O.2    23  PHE23      -0.2715
     24  CB        25.5500   37.1930   25.1040 C.3    23  PHE23       0.0574
     25  CG        26.1890   37.9170   23.9420 C.ar   23  PHE23      -0.0200
     26  CD1       25.7590   39.1760   23.5710 C.ar   23  PHE23      -0.0042
     27  CD2       27.1920   37.3180   23.2090 C.ar   23  PHE23      -0.0042
     28  CE1       26.3140   39.8270   22.4830 C.ar   23  PHE23      -0.0003
     29  CE2       27.7530   37.9590   22.1220 C.ar   23  PHE23      -0.0003
     30  CZ        27.3110   39.2170   21.7580 C.ar   23  PHE23      -0.0000
     31  N         23.6270   34.5950   26.0970 N.am   24  LEU24      -0.1963
     32  CA        23.0780   33.8640   27.2390 C.3    24  LEU24       0.1728
     33  C         24.1330   32.9330   27.8290 C.2    24  LEU24       0.2616
     34  O         24.9880   32.4130   27.1060 O.2    24  LEU24      -0.2715
     35  CB        21.8780   33.0140   26.8080 C.3    24  LEU24       0.0311
     36  CG        20.7260   33.6930   26.0770 C.3    24  LEU24       0.0022
     37  CD1       19.7200   32.6320   25.7150 C.3    24  LEU24       0.0001
     38  CD2       20.0900   34.7770   26.9490 C.3    24  LEU24       0.0001
     39  N         24.0240   32.6670   29.1260 N.am   25  GLY25      -0.1955
     40  CA        24.9650   31.7930   29.8010 C.3    25  GLY25       0.1869
     41  C         26.3280   32.4320   29.8370 C.2    25  GLY25       0.2309
     42  O         26.4610   33.5920   30.2140 O.2    25  GLY25      -0.2863
     43  N         28.2750   32.9240   27.0870 N.3    27  ALA27      -0.1231
     44  CA        28.6210   33.5030   25.8000 C.3    27  ALA27       0.1694
     45  C         28.8550   34.9700   26.0720 C.2    27  ALA27       0.2592
     46  O         28.0840   35.6110   26.7930 O.2    27  ALA27      -0.2718
     47  CB        27.4880   33.3440   24.8210 C.3    27  ALA27       0.0304
     48  N         29.8940   35.5200   25.4700 N.am   28  THR28      -0.1953
     49  CA        30.1990   36.9160   25.6720 C.3    28  THR28       0.1897
     50  C         30.7260   37.5770   24.4080 C.2    28  THR28       0.2313
     51  O         31.2140   36.9080   23.5050 O.2    28  THR28      -0.2863
     52  CB        31.2340   37.0560   26.8000 C.3    28  THR28       0.1794
     53  OG1       31.3450   38.4290   27.1660 O.3    28  THR28      -0.2208
     54  CG2       32.5860   36.5560   26.3640 C.3    28  THR28       0.0378
     55  N         11.2580   32.0690   23.1290 N.3    98  ASP98      -0.1225
     56  CA        11.4430   32.1690   24.5690 C.3    98  ASP98       0.1805
     57  C         12.3540   31.1150   25.1940 C.2    98  ASP98       0.2598
     58  O         12.4070   30.9920   26.4220 O.2    98  ASP98      -0.2718
     59  CB        10.0680   32.1370   25.2480 C.3    98  ASP98       0.1424
     60  CG         9.2250   30.9600   24.7860 C.2    98  ASP98       0.3668
     61  OD1        8.5550   31.0850   23.7310 O.co2  98  ASP98      -0.2456
     62  OD2        9.2540   29.9020   25.4570 O.co2  98  ASP98      -0.2456
     63  N         13.0580   30.3450   24.3710 N.am   99  SER99      -0.1938
     64  CA        13.9510   29.3130   24.9090 C.3    99  SER99       0.2055
     65  C         15.2350   29.9520   25.4240 C.2    99  SER99       0.2644
     66  O         15.5000   31.1210   25.1560 O.2    99  SER99      -0.2714
     67  CB        14.2650   28.2260   23.8600 C.3    99  SER99       0.2130
     68  OG        14.8960   28.7510   22.7010 O.3    99  SER99      -0.2179
     69  N         16.0170   29.1960   26.1810 N.am  100  SER100     -0.1935
     70  CA        17.2630   29.7170   26.7170 C.3   100  SER100      0.2055
     71  C         18.2940   28.6070   26.7360 C.2   100  SER100      0.2642
     72  O         17.9840   27.4500   26.4090 O.2   100  SER100     -0.2714
     73  CB        17.0560   30.2830   28.1300 C.3   100  SER100      0.2130
     74  OG        18.2370   30.8980   28.6280 O.3   100  SER100     -0.2179
     75  N         19.5000   28.9490   27.1810 N.am  101  VAL101     -0.1977
     76  CA        20.5920   27.9910   27.2510 C.3   101  VAL101      0.1596
     77  C         20.3190   26.8800   28.2480 C.2   101  VAL101      0.2287
     78  O         19.7740   27.1100   29.3340 O.2   101  VAL101     -0.2864
     79  CB        21.9370   28.6890   27.5240 C.3   101  VAL101      0.0276
     80  CG1       21.8920   29.4400   28.8340 C.3   101  VAL101      0.0022
     81  CG2       23.0700   27.6880   27.4880 C.3   101  VAL101      0.0022
@<TRIPOS>BOND
     1    13    14    1
     2    30    29   ar
     3    30    28   ar
     4    29    27   ar
     5    12    11    2
     6    11    10    1
     7    16    15    2
     8    18    17    1
     9    28    26   ar
    10    14    17    1
    11    14    15    1
    12    68    67    1
    13    17    19    1
    14    15    20   am
    15    55    56    1
    16    27    25   ar
    17    10     9    1
    18    51    50    2
    19    26    25   ar
    20    61    60   ar
    21     9     3   am
    22    67    64    1
    23    25    24    1
    24    20    21    1
    25    63    64    1
    26    63    57   am
    27    50    49    1
    28    56    57    1
    29    56    59    1
    30     3     2    1
    31     3     4    2
    32    21    24    1
    33    21    22    1
    34    60    59    1
    35    60    62   ar
    36    47    44    1
    37    64    65    1
    38     1     2    1
    39     2     5    1
    40    66    65    2
    41    57    58    2
    42    65    69   am
    43    48    49    1
    44    48    45   am
    45     7     6    2
    46    49    52    1
    47    37    36    1
    48    44    45    1
    49    44    43    1
    50    22    31   am
    51    22    23    2
    52    45    46    2
    53    36    35    1
    54    36    38    1
    55    31    32    1
    56    69    70    1
    57    54    52    1
    58     5     6    1
    59    72    71    2
    60     6     8   am
    61    70    71    1
    62    70    73    1
    63    71    75   am
    64    52    53    1
    65    35    32    1
    66    34    33    2
    67    75    76    1
    68    32    33    1
    69    76    79    1
    70    76    77    1
    71    81    79    1
    72    79    80    1
    73    33    39   am
    74    73    74    1
    75    77    78    2
    76    39    40    1
    77    40    41    1
    78    41    42    2
