@<TRIPOS>MOLECULE
tmp/1gspA00.pdb
 145 144 0 0 0
SMALL
GASTEIGER

@<TRIPOS>ATOM
      1  N         28.5820   35.3670   16.0740 N.3    36  ASN36      -0.1240
      2  CA        27.4210   34.7590   16.7140 C.3    36  ASN36       0.1653
      3  C         26.6610   33.8150   15.7890 C.2    36  ASN36       0.2266
      4  O         25.5140   33.4600   16.0470 O.2    36  ASN36      -0.2867
      5  CB        26.5030   35.8200   17.3200 C.3    36  ASN36       0.1155
      6  CG        27.0950   36.4340   18.5600 C.2    36  ASN36       0.2627
      7  OD1       27.1850   37.6510   18.6790 O.2    36  ASN36      -0.2716
      8  ND2       27.5390   35.5900   19.4830 N.am   36  ASN36      -0.0877
      9  N         25.2230   33.6880   12.3210 N.3    38  TYR38      -0.1241
     10  CA        23.9320   33.9550   11.7060 C.3    38  TYR38       0.1605
     11  C         23.9590   33.3680   10.2930 C.2    38  TYR38       0.2264
     12  O         24.9960   33.3990    9.6220 O.2    38  TYR38      -0.2867
     13  CB        23.6760   35.4560   11.6340 C.3    38  TYR38       0.0534
     14  CG        23.5850   36.1220   12.9810 C.ar   38  TYR38      -0.0201
     15  CD1       22.4720   35.9400   13.7970 C.ar   38  TYR38      -0.0009
     16  CD2       24.6020   36.9620   13.4280 C.ar   38  TYR38      -0.0009
     17  CE1       22.3750   36.5830   15.0230 C.ar   38  TYR38       0.0417
     18  CE2       24.5140   37.6080   14.6480 C.ar   38  TYR38       0.0417
     19  CZ        23.4000   37.4170   15.4370 C.ar   38  TYR38       0.1957
     20  OH        23.3110   38.0860   16.6280 O.3    38  TYR38      -0.2866
     21  N         20.8390   31.6300   12.6260 N.3    40  HIS40      -0.1226
     22  CA        20.7360   30.5310   13.5630 C.3    40  HIS40       0.1752
     23  C         19.3170   30.3990   14.0930 C.2    40  HIS40       0.2596
     24  O         18.4700   31.2650   13.8700 O.2    40  HIS40      -0.2718
     25  CB        21.8010   30.6030   14.6810 C.3    40  HIS40       0.0759
     26  CG        21.6850   31.7910   15.5910 C.ar   40  HIS40       0.0818
     27  ND1       22.7270   32.6740   15.7930 N.ar   40  HIS40      -0.2268
     28  CD2       20.6750   32.2100   16.3860 C.ar   40  HIS40       0.1154
     29  CE1       22.3570   33.5860   16.6740 C.ar   40  HIS40       0.1986
     30  NE2       21.1230   33.3340   17.0510 N.ar   40  HIS40      -0.2212
     31  N         19.0580   29.2910   14.7690 N.am   41  LYS41      -0.1966
     32  CA        17.7500   28.9990   15.3100 C.3    41  LYS41       0.1728
     33  C         17.2310   30.0400   16.3080 C.2    41  LYS41       0.2616
     34  O         17.9450   30.4800   17.2130 O.2    41  LYS41      -0.2715
     35  CB        17.7890   27.6130   15.9580 C.3    41  LYS41       0.0311
     36  CG        16.4330   27.0260   16.2840 C.3    41  LYS41       0.0038
     37  CD        16.5690   25.6950   17.0120 C.3    41  LYS41       0.0206
     38  CE        15.1960   25.1690   17.4200 C.3    41  LYS41       0.1093
     39  NZ        15.2980   24.0750   18.4290 N.3    41  LYS41      -0.1314
     40  N         16.0020   30.4820   16.0750 N.am   42  TYR42      -0.1960
     41  CA        15.3350   31.4230   16.9580 C.3    42  TYR42       0.1771
     42  C         14.2730   30.5560   17.6360 C.2    42  TYR42       0.2620
     43  O         13.3630   30.0590   16.9800 O.2    42  TYR42      -0.2715
     44  CB        14.6830   32.5590   16.1660 C.3    42  TYR42       0.0574
     45  CG        13.8960   33.4920   17.0520 C.ar   42  TYR42      -0.0198
     46  CD1       14.5350   34.2730   18.0140 C.ar   42  TYR42      -0.0009
     47  CD2       12.5050   33.5400   16.9850 C.ar   42  TYR42      -0.0009
     48  CE1       13.8180   35.0640   18.8830 C.ar   42  TYR42       0.0417
     49  CE2       11.7750   34.3330   17.8560 C.ar   42  TYR42       0.0417
     50  CZ        12.4410   35.0890   18.8030 C.ar   42  TYR42       0.1957
     51  OH        11.7250   35.8550   19.6880 O.3    42  TYR42      -0.2866
     52  N         14.3860   30.3920   18.9480 N.am   43  ASN43      -0.1958
     53  CA        13.4770   29.5340   19.6980 C.3    43  ASN43       0.1819
     54  C         12.0970   30.0840   20.0390 C.2    43  ASN43       0.2621
     55  O         11.1850   29.3180   20.3650 O.2    43  ASN43      -0.2715
     56  CB        14.1760   29.0410   20.9620 C.3    43  ASN43       0.1195
     57  CG        15.4200   28.2210   20.6530 C.2    43  ASN43       0.2630
     58  OD1       16.5330   28.5790   21.0400 O.2    43  ASN43      -0.2716
     59  ND2       15.2320   27.1130   19.9500 N.am   43  ASN43      -0.0877
     60  N         11.9550   31.4030   19.9650 N.am   44  ASN44      -0.1958
     61  CA        10.6980   32.0780   20.2680 C.3    44  ASN44       0.1819
     62  C         10.3100   31.9480   21.7450 C.2    44  ASN44       0.2621
     63  O          9.1550   31.6620   22.0630 O.2    44  ASN44      -0.2715
     64  CB         9.5690   31.5700   19.3540 C.3    44  ASN44       0.1195
     65  CG         8.3320   32.4600   19.3950 C.2    44  ASN44       0.2630
     66  OD1        8.4180   33.6590   19.6770 O.2    44  ASN44      -0.2716
     67  ND2        7.1750   31.8760   19.1080 N.am   44  ASN44      -0.0877
     68  N         11.2820   32.1650   22.6370 N.am   45  TYR45      -0.1960
     69  CA        11.0570   32.1150   24.0850 C.3    45  TYR45       0.1771
     70  C         10.0420   33.1960   24.4470 C.2    45  TYR45       0.2619
     71  O          9.3090   33.0730   25.4300 O.2    45  TYR45      -0.2715
     72  CB        12.3510   32.4060   24.8570 C.3    45  TYR45       0.0574
     73  CG        13.4580   31.3900   24.6910 C.ar   45  TYR45      -0.0198
     74  CD1       13.1980   30.0190   24.7300 C.ar   45  TYR45      -0.0009
     75  CD2       14.7770   31.8060   24.5080 C.ar   45  TYR45      -0.0009
     76  CE1       14.2330   29.0800   24.5910 C.ar   45  TYR45       0.0417
     77  CE2       15.8130   30.8860   24.3700 C.ar   45  TYR45       0.0417
     78  CZ        15.5400   29.5260   24.4130 C.ar   45  TYR45       0.1957
     79  OH        16.5830   28.6300   24.3040 O.3    45  TYR45      -0.2866
     80  N         10.0400   34.2660   23.6520 N.am   46  GLU46      -0.1977
     81  CA         9.1310   35.3880   23.8390 C.3    46  GLU46       0.1602
     82  C          7.6960   34.9440   23.6340 C.2    46  GLU46       0.2287
     83  O          6.7770   35.4880   24.2460 O.2    46  GLU46      -0.2864
     84  CB         9.4500   36.5220   22.8600 C.3    46  GLU46       0.0415
     85  CG        10.5910   37.4380   23.2930 C.3    46  GLU46       0.1163
     86  CD        11.9770   36.8360   23.0920 C.2    46  GLU46       0.3649
     87  OE1       12.1190   35.8260   22.3670 O.co2  46  GLU46      -0.2457
     88  OE2       12.9350   37.3890   23.6640 O.co2  46  GLU46      -0.2457
     89  N         16.8540   33.3990   12.7960 N.3    58  GLU58      -0.1245
     90  CA        17.0250   34.8420   12.8360 C.3    58  GLU58       0.1567
     91  C         18.2240   35.2640   12.0180 C.2    58  GLU58       0.2260
     92  O         19.2270   34.5520   11.9480 O.2    58  GLU58      -0.2867
     93  CB        17.1280   35.3690   14.2710 C.3    58  GLU58       0.0388
     94  CG        18.2830   34.8420   15.0710 C.3    58  GLU58       0.1160
     95  CD        18.3870   35.5130   16.4250 C.2    58  GLU58       0.3649
     96  OE1       18.8240   36.6790   16.4720 O.co2  58  GLU58      -0.2457
     97  OE2       18.0310   34.8820   17.4410 O.co2  58  GLU58      -0.2457
     98  N         16.3200   42.1280   13.6800 N.3    77  ARG77      -0.1245
     99  CA        16.4280   40.8060   13.0600 C.3    77  ARG77       0.1563
    100  C         15.1810   40.4700   12.2590 C.2    77  ARG77       0.2260
    101  O         14.0870   40.9050   12.6110 O.2    77  ARG77      -0.2867
    102  CB        16.5380   39.7130   14.1310 C.3    77  ARG77       0.0307
    103  CG        17.5810   39.9110   15.2130 C.3    77  ARG77       0.0489
    104  CD        18.9710   39.5460   14.7410 C.3    77  ARG77       0.2205
    105  NE        19.9240   39.6310   15.8400 N.pl3  77  ARG77      -0.0865
    106  CZ        20.5640   40.7420   16.1920 C.cat  77  ARG77       0.5346
    107  NH1       20.3730   41.8710   15.5190 N.pl3  77  ARG77       0.1354
    108  NH2       21.3270   40.7430   17.2730 N.pl3  77  ARG77       0.1354
    109  N         15.7010   44.2160   19.6640 N.3    92  HIS92      -0.1241
    110  CA        16.1330   44.2630   21.0600 C.3    92  HIS92       0.1621
    111  C         15.7740   45.6290   21.6530 C.2    92  HIS92       0.2264
    112  O         15.7650   45.7990   22.8770 O.2    92  HIS92      -0.2867
    113  CB        17.6490   44.1050   21.1600 C.3    92  HIS92       0.0745
    114  CG        18.1310   42.6960   21.0390 C.ar   92  HIS92       0.0817
    115  ND1       17.6950   41.6900   21.8830 N.ar   92  HIS92      -0.2268
    116  CD2       19.0390   42.1340   20.2160 C.ar   92  HIS92       0.1154
    117  CE1       18.3260   40.5700   21.5750 C.ar   92  HIS92       0.1986
    118  NE2       19.1450   40.8070   20.5740 N.ar   92  HIS92      -0.2212
    119  N         18.4330   41.0010   26.7010 N.3    98  ASN98      -0.1225
    120  CA        18.5710   40.3440   25.4030 C.3    98  ASN98       0.1785
    121  C         17.2390   39.8330   24.8600 C.2    98  ASN98       0.2597
    122  O         17.1920   39.0160   23.9360 O.2    98  ASN98      -0.2718
    123  CB        19.5780   39.1950   25.4910 C.3    98  ASN98       0.1169
    124  CG        21.0190   39.6810   25.5420 C.2    98  ASN98       0.2627
    125  OD1       21.8030   39.2400   26.3840 O.2    98  ASN98      -0.2716
    126  ND2       21.3790   40.5760   24.6230 N.am   98  ASN98      -0.0877
    127  N         16.1510   40.3000   25.4550 N.am   99  ASN99      -0.1960
    128  CA        14.8340   39.9100   24.9950 C.3    99  ASN99       0.1819
    129  C         14.5060   40.6350   23.6910 C.2    99  ASN99       0.2621
    130  O         15.2500   41.5100   23.2460 O.2    99  ASN99      -0.2715
    131  CB        13.7830   40.2160   26.0600 C.3    99  ASN99       0.1195
    132  CG        13.9490   39.3590   27.3000 C.2    99  ASN99       0.2630
    133  OD1       14.1150   38.1410   27.2080 O.2    99  ASN99      -0.2716
    134  ND2       13.9020   39.9870   28.4640 N.am   99  ASN99      -0.0877
    135  N         13.3860   40.2610   23.0860 N.am  100  PHE100     -0.1974
    136  CA        12.9340   40.8700   21.8400 C.3   100  PHE100      0.1639
    137  C         11.5000   41.3750   21.9580 C.2   100  PHE100      0.2290
    138  O         10.7430   40.9480   22.8300 O.2   100  PHE100     -0.2864
    139  CB        12.9630   39.8440   20.6910 C.3   100  PHE100      0.0560
    140  CG        14.3370   39.5510   20.1430 C.ar  100  PHE100     -0.0200
    141  CD1       14.9790   40.4610   19.3140 C.ar  100  PHE100     -0.0042
    142  CD2       14.9630   38.3400   20.4160 C.ar  100  PHE100     -0.0042
    143  CE1       16.2230   40.1660   18.7620 C.ar  100  PHE100     -0.0003
    144  CE2       16.2020   38.0400   19.8680 C.ar  100  PHE100     -0.0003
    145  CZ        16.8310   38.9550   19.0400 C.ar  100  PHE100     -0.0000
@<TRIPOS>BOND
     1    12    11    2
     2    11    10    1
     3    13    10    1
     4    13    14    1
     5    10     9    1
     6    92    91    2
     7    91    90    1
     8   100   101    2
     9   100    99    1
    10    21    22    1
    11    89    90    1
    12    90    93    1
    13    14    16   ar
    14    14    15   ar
    15    99    98    1
    16    99   102    1
    17    16    18   ar
    18    22    23    1
    19    22    25    1
    20    15    17   ar
    21    24    23    2
    22    23    31   am
    23   102   103    1
    24    93    94    1
    25    18    19   ar
    26    25    26    1
    27   104   103    1
    28   104   105    1
    29    31    32    1
    30    17    19   ar
    31    94    95    1
    32    32    35    1
    33    32    33    1
    34    19    20    1
    35   107   106    1
    36    26    27   ar
    37    26    28   ar
    38     3     4    2
    39     3     2    1
    40    27    29   ar
    41   105   106    2
    42    35    36    1
    43     1     2    1
    44    40    33   am
    45    40    41    1
    46    44    41    1
    47    44    45    1
    48   106   108    1
    49    36    37    1
    50    33    34    2
    51    28    30   ar
    52    95    96   ar
    53    95    97   ar
    54    29    30   ar
    55     2     5    1
    56    41    42    1
    57    43    42    2
    58    47    45   ar
    59    47    49   ar
    60    37    38    1
    61    45    46   ar
    62     5     6    1
    63    38    39    1
    64    42    52   am
    65    49    50   ar
    66    46    48   ar
    67     6     7    2
    68     6     8   am
    69   143   145   ar
    70   143   141   ar
    71    50    48   ar
    72    50    51    1
    73    52    53    1
    74   145   144   ar
    75    67    65   am
    76   141   140   ar
    77    64    65    1
    78    64    61    1
    79    65    66    2
    80   109   110    1
    81    53    54    1
    82    53    56    1
    83   144   142   ar
    84    59    57   am
    85    60    54   am
    86    60    61    1
    87    54    55    2
    88   140   142   ar
    89   140   139    1
    90   116   118   ar
    91   116   114   ar
    92    61    62    1
    93   118   117   ar
    94    57    56    1
    95    57    58    2
    96   139   136    1
    97   114   113    1
    98   114   115   ar
    99   110   113    1
   100   110   111    1
   101   117   115   ar
   102   111   112    2
   103    62    63    2
   104    62    68   am
   105   136   137    1
   106   136   135    1
   107   137   138    2
   108    87    86   ar
   109    68    69    1
   110    84    85    1
   111    84    81    1
   112   135   129   am
   113    86    85    1
   114    86    88   ar
   115   130   129    2
   116    82    81    1
   117    82    83    2
   118    80    81    1
   119    80    70   am
   120   129   128    1
   121   122   121    2
   122    69    70    1
   123    69    72    1
   124    79    78    1
   125    77    78   ar
   126    77    75   ar
   127    78    76   ar
   128    70    71    2
   129    75    73   ar
   130    76    74   ar
   131   126   124   am
   132    73    74   ar
   133    73    72    1
   134   121   120    1
   135   121   127   am
   136   128   127    1
   137   128   131    1
   138   120   123    1
   139   120   119    1
   140   123   124    1
   141   124   125    2
   142   131   132    1
   143   133   132    2
   144   132   134   am
