@<TRIPOS>MOLECULE
tmp/1gsuB00.pdb
 207 205 0 0 0
SMALL
GASTEIGER

@<TRIPOS>ATOM
      1  N         19.2540    1.6230   23.6590 N.3     6  TYR6       -0.1227
      2  CA        19.3600    0.4490   24.5230 C.3     6  TYR6        0.1736
      3  C         18.9340   -0.7760   23.7030 C.2     6  TYR6        0.2595
      4  O         18.4020   -0.6300   22.6010 O.2     6  TYR6       -0.2718
      5  CB        18.4020    0.5810   25.7220 C.3     6  TYR6        0.0548
      6  CG        18.7140   -0.3910   26.8270 C.ar    6  TYR6       -0.0200
      7  CD1       19.9620   -0.3720   27.4660 C.ar    6  TYR6       -0.0009
      8  CD2       17.8180   -1.3830   27.1770 C.ar    6  TYR6       -0.0009
      9  CE1       20.2970   -1.3370   28.4200 C.ar    6  TYR6        0.0417
     10  CE2       18.1430   -2.3370   28.1100 C.ar    6  TYR6        0.0417
     11  CZ        19.3730   -2.3110   28.7230 C.ar    6  TYR6        0.1957
     12  OH        19.6890   -3.2850   29.6280 O.3     6  TYR6       -0.2866
     13  N         19.1870   -1.9770   24.2190 N.am    7  TRP7       -0.1976
     14  CA        18.7950   -3.2080   23.5180 C.3     7  TRP7        0.1640
     15  C         17.2820   -3.2940   23.4430 C.2     7  TRP7        0.2290
     16  O         16.5710   -2.7450   24.2980 O.2     7  TRP7       -0.2864
     17  CB        19.2670   -4.4210   24.3030 C.3     7  TRP7        0.0576
     18  CG        20.7150   -4.4020   24.5710 C.ar    7  TRP7        0.0006
     19  CD1       21.3350   -4.2010   25.7790 C.ar    7  TRP7        0.0946
     20  CD2       21.7430   -4.6400   23.6160 C.ar    7  TRP7        0.0152
     21  NE1       22.6940   -4.3150   25.6240 N.ar    7  TRP7       -0.2442
     22  CE2       22.9680   -4.5870   24.3030 C.ar    7  TRP7        0.0810
     23  CE3       21.7460   -4.9020   22.2400 C.ar    7  TRP7        0.0012
     24  CZ2       24.1810   -4.7890   23.6580 C.ar    7  TRP7        0.0191
     25  CZ3       22.9580   -5.0990   21.5970 C.ar    7  TRP7        0.0001
     26  CH2       24.1500   -5.0420   22.3060 C.ar    7  TRP7        0.0015
     27  N         14.8570   -4.8660   24.6410 N.3     9  ILE9       -0.1245
     28  CA        14.3380   -5.6850   25.7350 C.3     9  ILE9        0.1561
     29  C         14.0220   -4.6880   26.8300 C.2     9  ILE9        0.2260
     30  O         14.3050   -3.5030   26.6730 O.2     9  ILE9       -0.2867
     31  CB        15.3990   -6.6630   26.2710 C.3     9  ILE9        0.0252
     32  CG1       16.5390   -5.8710   26.9140 C.3     9  ILE9        0.0019
     33  CG2       15.9160   -7.5480   25.1530 C.3     9  ILE9        0.0019
     34  CD1       17.7200   -6.7060   27.3940 C.3     9  ILE9        0.0001
     35  N         15.2250   -4.8180   30.2410 N.3    11  GLY11      -0.1210
     36  CA        16.4670   -4.5500   30.9490 C.3    11  GLY11       0.1956
     37  C         16.4990   -3.3360   31.8780 C.2    11  GLY11       0.2611
     38  O         15.5240   -3.0430   32.5830 O.2    11  GLY11      -0.2717
     39  N         17.6390   -2.6410   31.8620 N.am   12  LEU12      -0.1979
     40  CA        17.8960   -1.4360   32.6620 C.3    12  LEU12       0.1596
     41  C         17.2080   -0.1370   32.2020 C.2    12  LEU12       0.2287
     42  O         17.3240    0.8890   32.8670 O.2    12  LEU12      -0.2864
     43  CB        19.3950   -1.1600   32.7060 C.3    12  LEU12       0.0297
     44  CG        20.1680   -1.5500   33.9550 C.3    12  LEU12       0.0022
     45  CD1       21.5910   -1.1480   33.6940 C.3    12  LEU12       0.0001
     46  CD2       19.6270   -0.8750   35.1950 C.3    12  LEU12       0.0001
     47  N         25.3550   -2.7070   17.9530 N.3    45  TRP45      -0.1241
     48  CA        25.7470   -1.7000   18.9270 C.3    45  TRP45       0.1605
     49  C         27.1860   -1.2630   18.7690 C.2    45  TRP45       0.2264
     50  O         27.4590   -0.0780   18.6530 O.2    45  TRP45      -0.2867
     51  CB        25.5270   -2.2480   20.3370 C.3    45  TRP45       0.0550
     52  CG        26.2440   -1.5130   21.4460 C.ar   45  TRP45       0.0003
     53  CD1       27.0040   -2.0670   22.4200 C.ar   45  TRP45       0.0946
     54  CD2       26.1680   -0.1070   21.7500 C.ar   45  TRP45       0.0152
     55  NE1       27.3860   -1.1160   23.3270 N.ar   45  TRP45      -0.2442
     56  CE2       26.8900    0.0980   22.9420 C.ar   45  TRP45       0.0810
     57  CE3       25.5590    0.9890   21.1320 C.ar   45  TRP45       0.0012
     58  CZ2       27.0160    1.3710   23.5440 C.ar   45  TRP45       0.0191
     59  CZ3       25.6850    2.2470   21.7200 C.ar   45  TRP45       0.0001
     60  CH2       26.4060    2.4270   22.9140 C.ar   45  TRP45       0.0015
     61  N         28.7920    2.3060   18.6620 N.3    49  LYS49      -0.1245
     62  CA        29.3980    2.5720   19.9610 C.3    49  LYS49       0.1561
     63  C         30.3370    3.7720   20.1360 C.2    49  LYS49       0.2260
     64  O         30.1230    4.6160   21.0170 O.2    49  LYS49      -0.2867
     65  CB        30.0640    1.2900   20.4250 C.3    49  LYS49       0.0271
     66  CG        30.8240    1.3560   21.7020 C.3    49  LYS49       0.0035
     67  CD        31.3710   -0.0310   21.9470 C.3    49  LYS49       0.0206
     68  CE        32.3510   -0.0430   23.0720 C.3    49  LYS49       0.1093
     69  NZ        31.8220    0.7510   24.1690 N.3    49  LYS49      -0.1314
     70  N         30.9960    5.6220   26.5140 N.3    57  PRO57      -0.2102
     71  CA        30.1280    4.7900   25.6770 C.3    57  PRO57       0.1504
     72  C         29.5050    3.6340   26.4360 C.2    57  PRO57       0.2576
     73  O         30.2170    2.8510   27.0680 O.2    57  PRO57      -0.2718
     74  CB        31.0820    4.3330   24.5780 C.3    57  PRO57       0.0282
     75  CG        32.0000    5.5080   24.4480 C.3    57  PRO57       0.0208
     76  CD        32.3110    5.7960   25.8720 C.3    57  PRO57       0.0893
     77  N         28.1750    3.5540   26.4120 N.am   58  ASN58      -0.1961
     78  CA        27.4810    2.4950   27.1330 C.3    58  ASN58       0.1819
     79  C         25.9880    2.5610   26.8790 C.2    58  ASN58       0.2621
     80  O         25.5070    3.5450   26.3210 O.2    58  ASN58      -0.2715
     81  CB        27.7400    2.6620   28.6210 C.3    58  ASN58       0.1195
     82  CG        27.7440    1.3580   29.3490 C.2    58  ASN58       0.2630
     83  OD1       27.0190    0.4390   28.9840 O.2    58  ASN58      -0.2716
     84  ND2       28.5400    1.2680   30.4040 N.am   58  ASN58      -0.0877
     85  N         25.2690    1.5000   27.2450 N.am   59  LEU59      -0.1964
     86  CA        23.8100    1.4430   27.0860 C.3    59  LEU59       0.1713
     87  C         23.1600    1.2990   28.4690 C.2    59  LEU59       0.2458
     88  O         23.5510    0.4320   29.2310 O.2    59  LEU59      -0.2730
     89  CB        23.4040    0.2610   26.1830 C.3    59  LEU59       0.0310
     90  CG        23.6620    0.3390   24.6790 C.3    59  LEU59       0.0022
     91  CD1       23.2050   -0.9350   24.0020 C.3    59  LEU59       0.0001
     92  CD2       22.9370    1.5230   24.0970 C.3    59  LEU59       0.0001
     93  N         22.0810    2.0560   28.7590 N.am   60  PRO60      -0.2727
     94  CA        21.3910    3.0390   27.9160 C.3    60  PRO60       0.1402
     95  C         22.1090    4.3680   27.8460 C.2    60  PRO60       0.2269
     96  O         22.9490    4.6720   28.6860 O.2    60  PRO60      -0.2865
     97  CB        20.0670    3.2190   28.6370 C.3    60  PRO60       0.0296
     98  CG        20.4960    3.1880   30.0760 C.3    60  PRO60       0.0237
     99  CD        21.4900    2.0300   30.1150 C.3    60  PRO60       0.0939
    100  N         25.1510    8.5480   29.6590 N.3    70  THR70      -0.1203
    101  CA        25.2420    7.0780   29.5750 C.3    70  THR70       0.1994
    102  C         24.9370    6.1930   30.7890 C.2    70  THR70       0.2618
    103  O         24.8060    4.9630   30.6400 O.2    70  THR70      -0.2717
    104  CB        26.5880    6.5980   29.0560 C.3    70  THR70       0.1784
    105  OG1       27.6430    7.2960   29.7360 O.3    70  THR70      -0.2211
    106  CG2       26.6690    6.7910   27.5730 C.3    70  THR70       0.0376
    107  N         24.9150    6.7430   31.9900 N.am   71  GLN71      -0.1965
    108  CA        24.6040    5.8800   33.1280 C.3    71  GLN71       0.1733
    109  C         23.1220    6.0040   33.4420 C.2    71  GLN71       0.2617
    110  O         22.6550    7.1020   33.6190 O.2    71  GLN71      -0.2715
    111  CB        25.4270    6.2730   34.3480 C.3    71  GLN71       0.0408
    112  CG        26.9220    5.9400   34.2440 C.3    71  GLN71       0.0908
    113  CD        27.2280    4.4520   34.3910 C.2    71  GLN71       0.2608
    114  OE1       26.6240    3.7410   35.1870 O.2    71  GLN71      -0.2717
    115  NE2       28.2080    3.9900   33.6320 N.am   71  GLN71      -0.0878
    116  N         22.4190    4.8860   33.6150 N.am   72  SER72      -0.1936
    117  CA        20.9640    4.8780   33.8860 C.3    72  SER72       0.2055
    118  C         20.5040    5.8390   34.9720 C.2    72  SER72       0.2643
    119  O         19.6250    6.6700   34.7180 O.2    72  SER72      -0.2714
    120  CB        20.4300    3.4600   34.1520 C.3    72  SER72       0.2130
    121  OG        21.0260    2.8910   35.3030 O.3    72  SER72      -0.2179
    122  N         21.1120    5.7690   36.1550 N.am   73  ASN73      -0.1971
    123  CA        20.7460    6.6880   37.2500 C.3    73  ASN73       0.1688
    124  C         20.9230    8.1800   36.8980 C.2    73  ASN73       0.2292
    125  O         20.0990    9.0160   37.2530 O.2    73  ASN73      -0.2864
    126  CB        21.5270    6.3730   38.5350 C.3    73  ASN73       0.1181
    127  CG        21.0120    5.1330   39.2470 C.2    73  ASN73       0.2629
    128  OD1       19.8940    4.7070   39.0420 O.2    73  ASN73      -0.2716
    129  ND2       21.8490    4.5350   40.0570 N.am   73  ASN73      -0.0877
    130  N         20.0300   -0.3710   43.5210 N.3   104  MET104     -0.1245
    131  CA        20.9730   -0.8430   42.5070 C.3   104  MET104      0.1570
    132  C         21.6340   -2.1160   43.0560 C.2   104  MET104      0.2261
    133  O         21.9200   -3.0500   42.2970 O.2   104  MET104     -0.2867
    134  CB        22.0100    0.2250   42.1600 C.3   104  MET104      0.0387
    135  CG        23.1690   -0.2410   41.2830 C.3   104  MET104      0.0595
    136  SD        22.6570   -0.8370   39.6910 S.3   104  MET104     -0.1393
    137  CE        21.6540    0.5520   39.0860 C.3   104  MET104      0.0692
    138  N         18.9800   -4.9060   42.4990 N.3   107  ARG107     -0.1245
    139  CA        18.8590   -5.2770   41.0960 C.3   107  ARG107      0.1563
    140  C         19.9880   -6.1480   40.6120 C.2   107  ARG107      0.2260
    141  O         19.7530   -7.1390   39.9060 O.2   107  ARG107     -0.2867
    142  CB        18.8450   -4.0210   40.2400 C.3   107  ARG107      0.0307
    143  CG        18.7790   -4.2950   38.7600 C.3   107  ARG107      0.0489
    144  CD        19.1310   -3.0460   37.9930 C.3   107  ARG107      0.2205
    145  NE        18.2220   -1.9640   38.3240 N.pl3 107  ARG107     -0.0865
    146  CZ        16.9940   -1.8570   37.8190 C.cat 107  ARG107      0.5346
    147  NH1       16.5300   -2.7740   36.9740 N.pl3 107  ARG107      0.1354
    148  NH2       16.2270   -0.8310   38.1640 N.pl3 107  ARG107      0.1354
    149  N         20.3830   -9.7970   38.9910 N.3   111  ALA111     -0.1245
    150  CA        20.8720  -10.0190   37.6230 C.3   111  ALA111      0.1562
    151  C         21.9670  -11.0870   37.6400 C.2   111  ALA111      0.2260
    152  O         22.1060  -11.8620   36.6950 O.2   111  ALA111     -0.2867
    153  CB        21.4040   -8.7210   37.0140 C.3   111  ALA111      0.0290
    154  N         21.7820  -14.6220   35.7220 N.3   115  TYR115     -0.1241
    155  CA        22.7290  -14.6760   34.6080 C.3   115  TYR115      0.1605
    156  C         23.7860  -15.7470   34.8370 C.2   115  TYR115      0.2264
    157  O         24.4720  -16.1580   33.9010 O.2   115  TYR115     -0.2867
    158  CB        23.4280  -13.3280   34.3980 C.3   115  TYR115      0.0534
    159  CG        22.6990  -12.3730   33.4780 C.ar  115  TYR115     -0.0201
    160  CD1       22.5290  -12.6680   32.1150 C.ar  115  TYR115     -0.0009
    161  CD2       22.2020  -11.1670   33.9550 C.ar  115  TYR115     -0.0009
    162  CE1       21.8760  -11.7650   31.2520 C.ar  115  TYR115      0.0417
    163  CE2       21.5570  -10.2680   33.1080 C.ar  115  TYR115      0.0417
    164  CZ        21.3990  -10.5680   31.7620 C.ar  115  TYR115      0.1957
    165  OH        20.7920   -9.6450   30.9340 O.3   115  TYR115     -0.2866
    166  N         10.0380   -6.8050   39.2290 N.3   165  GLN165     -0.1245
    167  CA        10.8510   -7.9450   38.8500 C.3   165  GLN165      0.1566
    168  C         10.6530   -9.1070   39.7990 C.2   165  GLN165      0.2260
    169  O         10.5230  -10.2450   39.3560 O.2   165  GLN165     -0.2867
    170  CB        12.3370   -7.5860   38.8230 C.3   165  GLN165      0.0367
    171  CG        12.8210   -6.8890   37.5600 C.3   165  GLN165      0.0905
    172  CD        14.3170   -6.6270   37.5810 C.2   165  GLN165      0.2608
    173  OE1       15.0580   -7.2030   38.3830 O.2   165  GLN165     -0.2717
    174  NE2       14.7650   -5.7520   36.7050 N.am  165  GLN165     -0.0878
    175  N         13.2310   -9.2870   30.7910 N.3   207  ILE207     -0.1231
    176  CA        13.9330   -8.4390   31.7510 C.3   207  ILE207      0.1692
    177  C         15.4370   -8.5390   31.5050 C.2   207  ILE207      0.2592
    178  O         16.1810   -7.5730   31.7040 O.2   207  ILE207     -0.2718
    179  CB        13.6740   -8.8800   33.2140 C.3   207  ILE207      0.0266
    180  CG1       12.2160   -8.6680   33.6080 C.3   207  ILE207      0.0019
    181  CG2       14.5450   -8.1070   34.1600 C.3   207  ILE207      0.0020
    182  CD1       11.8880   -9.2910   34.9330 C.3   207  ILE207      0.0001
    183  N         15.8910   -9.7170   31.1000 N.am  208  PHE208     -0.1962
    184  CA        17.3150   -9.9210   30.8860 C.3   208  PHE208      0.1771
    185  C         17.6710  -10.2230   29.4490 C.2   208  PHE208      0.2619
    186  O         16.7960  -10.3810   28.5880 O.2   208  PHE208     -0.2715
    187  CB        17.8310  -11.0500   31.7820 C.3   208  PHE208      0.0574
    188  CG        17.7520  -10.7450   33.2520 C.ar  208  PHE208     -0.0200
    189  CD1       18.5310   -9.7330   33.8080 C.ar  208  PHE208     -0.0042
    190  CD2       16.8990  -11.4730   34.0860 C.ar  208  PHE208     -0.0042
    191  CE1       18.4670   -9.4520   35.1580 C.ar  208  PHE208     -0.0003
    192  CE2       16.8260  -11.1950   35.4500 C.ar  208  PHE208     -0.0003
    193  CZ        17.6120  -10.1830   35.9860 C.ar  208  PHE208     -0.0000
    194  N         18.9780  -10.2980   29.2100 N.am  209  TRP209     -0.1974
    195  CA        19.5350  -10.5850   27.8960 C.3   209  TRP209      0.1640
    196  C         19.1920  -12.0400   27.5420 C.2   209  TRP209      0.2290
    197  O         18.8640  -12.8420   28.4260 O.2   209  TRP209     -0.2864
    198  CB        21.0500  -10.3860   27.9220 C.3   209  TRP209      0.0576
    199  CG        21.6460  -10.4100   26.5640 C.ar  209  TRP209      0.0006
    200  CD1       22.6520  -11.2210   26.1180 C.ar  209  TRP209      0.0946
    201  CD2       21.2820   -9.5730   25.4620 C.ar  209  TRP209      0.0152
    202  NE1       22.9400  -10.9340   24.8040 N.ar  209  TRP209     -0.2442
    203  CE2       22.1160   -9.9260   24.3770 C.ar  209  TRP209      0.0810
    204  CE3       20.3350   -8.5560   25.2880 C.ar  209  TRP209      0.0012
    205  CZ2       22.0330   -9.2960   23.1330 C.ar  209  TRP209      0.0191
    206  CZ3       20.2520   -7.9350   24.0610 C.ar  209  TRP209      0.0001
    207  CH2       21.0960   -8.3040   22.9940 C.ar  209  TRP209      0.0015
@<TRIPOS>BOND
     1    47    48    1
     2    50    49    2
     3    61    62    1
     4    49    48    1
     5    48    51    1
     6    62    63    1
     7    62    65    1
     8    63    64    2
     9    51    52    1
    10    65    66    1
    11    57    59   ar
    12    57    54   ar
    13    52    54   ar
    14    52    53   ar
    15    25    23   ar
    16    25    26   ar
    17    66    67    1
    18    59    60   ar
    19    54    56   ar
    20    67    68    1
    21    23    20   ar
    22    26    24   ar
    23    53    55   ar
    24     4     3    2
    25    60    58   ar
    26    56    55   ar
    27    56    58   ar
    28   207   205   ar
    29   207   206   ar
    30    68    69    1
    31   205   203   ar
    32    15    14    1
    33    15    16    2
    34    14    13    1
    35    14    17    1
    36    20    22   ar
    37    20    18   ar
    38    24    22   ar
    39     1     2    1
    40     3    13   am
    41     3     2    1
    42    91    90    1
    43   206   204   ar
    44    92    90    1
    45    22    21   ar
    46    17    18    1
    47   203   202   ar
    48   203   201   ar
    49    75    74    1
    50    75    76    1
    51     2     5    1
    52    18    19   ar
    53    74    71    1
    54    27    28    1
    55    90    89    1
    56   202   200   ar
    57    33    31    1
    58   204   201   ar
    59   201   199   ar
    60    21    19   ar
    61    71    72    1
    62    71    70    1
    63     5     6    1
    64    28    31    1
    65    28    29    1
    66    76    70    1
    67   200   199   ar
    68    89    86    1
    69    31    32    1
    70    80    79    2
    71    77    72   am
    72    77    78    1
    73    72    73    2
    74   199   198    1
    75    30    29    2
    76     6     8   ar
    77     6     7   ar
    78    79    78    1
    79    79    85   am
    80    32    34    1
    81    86    85    1
    82    86    87    1
    83    78    81    1
    84     8    10   ar
    85     7     9   ar
    86   196   195    1
    87   196   197    2
    88   106   104    1
    89    95    94    1
    90    95    96    2
    91   195   198    1
    92   195   194    1
    93    94    97    1
    94    94    93    1
    95    10    11   ar
    96     9    11   ar
    97    87    93   am
    98    87    88    2
    99   186   185    2
   100    81    82    1
   101    97    98    1
   102    11    12    1
   103    93    99    1
   104    83    82    2
   105   104   101    1
   106   104   105    1
   107   194   185   am
   108    82    84   am
   109   185   184    1
   110   101   100    1
   111   101   102    1
   112    98    99    1
   113    35    36    1
   114   103   102    2
   115   102   107   am
   116   175   176    1
   117   184   183    1
   118   184   187    1
   119   165   164    1
   120    36    37    1
   121   183   177   am
   122   162   164   ar
   123   162   160   ar
   124   177   178    2
   125   177   176    1
   126   176   179    1
   127   164   163   ar
   128   187   188    1
   129    39    37   am
   130    39    40    1
   131    37    38    2
   132   107   108    1
   133   160   159   ar
   134    41    40    1
   135    41    42    2
   136    40    43    1
   137    43    44    1
   138   163   161   ar
   139   108   109    1
   140   108   111    1
   141   179   180    1
   142   179   181    1
   143   188   189   ar
   144   188   190   ar
   145   109   116   am
   146   109   110    2
   147   159   161   ar
   148   159   158    1
   149   180   182    1
   150   116   117    1
   151   115   113   am
   152    45    44    1
   153   189   191   ar
   154   117   120    1
   155   117   118    1
   156   157   156    2
   157    44    46    1
   158   190   192   ar
   159   120   121    1
   160   112   111    1
   161   112   113    1
   162   113   114    2
   163   158   155    1
   164   155   156    1
   165   155   154    1
   166   119   118    2
   167   118   122   am
   168   191   193   ar
   169   192   193   ar
   170   122   123    1
   171   152   151    2
   172   174   172   am
   173   124   123    1
   174   124   125    2
   175   147   146    1
   176   153   150    1
   177   123   126    1
   178   171   172    1
   179   171   170    1
   180   172   173    2
   181   150   151    1
   182   150   149    1
   183   146   148    1
   184   146   145    2
   185   144   145    1
   186   144   143    1
   187   126   127    1
   188   143   142    1
   189   170   167    1
   190   167   166    1
   191   167   168    1
   192   128   127    2
   193   137   136    1
   194   127   129   am
   195   169   168    2
   196   136   135    1
   197   141   140    2
   198   142   139    1
   199   140   139    1
   200   139   138    1
   201   135   134    1
   202   134   131    1
   203   133   132    2
   204   131   132    1
   205   131   130    1
