@<TRIPOS>MOLECULE
tmp/1gt1A01.pdb
 160 154 0 0 0
SMALL
GASTEIGER

@<TRIPOS>ATOM
      1  N          5.6200   -4.1400   13.3410 N.3    21  ILE21      -0.1245
      2  CA         4.6830   -4.6900   12.3690 C.3    21  ILE21       0.1561
      3  C          4.8260   -6.2050   12.4860 C.2    21  ILE21       0.2260
      4  O          5.9380   -6.7390   12.4800 O.2    21  ILE21      -0.2867
      5  CB         4.9510   -4.2500   10.8910 C.3    21  ILE21       0.0252
      6  CG1        4.6550   -2.7580   10.7280 C.3    21  ILE21       0.0019
      7  CG2        4.0340   -5.0370    9.9310 C.3    21  ILE21       0.0019
      8  CD1        4.8560   -2.2240    9.3100 C.3    21  ILE21       0.0001
      9  N          5.4840   -5.0890    2.7860 N.3    35  PHE35      -0.1241
     10  CA         4.9440   -4.4240    3.9610 C.3    35  PHE35       0.1605
     11  C          5.9600   -4.0500    5.0320 C.2    35  PHE35       0.2264
     12  O          5.5990   -3.8100    6.1850 O.2    35  PHE35      -0.2867
     13  CB         3.8100   -5.2500    4.5610 C.3    35  PHE35       0.0534
     14  CG         2.5440   -5.1800    3.7630 C.ar   35  PHE35      -0.0203
     15  CD1        2.3250   -6.0470    2.6980 C.ar   35  PHE35      -0.0042
     16  CD2        1.5900   -4.2080    4.0450 C.ar   35  PHE35      -0.0042
     17  CE1        1.1670   -5.9430    1.9230 C.ar   35  PHE35      -0.0003
     18  CE2        0.4340   -4.0920    3.2800 C.ar   35  PHE35      -0.0003
     19  CZ         0.2210   -4.9640    2.2130 C.ar   35  PHE35      -0.0000
     20  N          7.2340   -1.4520    5.8190 N.3    37  THR37      -0.1218
     21  CA         7.0010   -0.0350    5.6320 C.3    37  THR37       0.1862
     22  C          7.3770    0.9240    6.7550 C.2    37  THR37       0.2287
     23  O          6.8520    0.8310    7.8560 O.2    37  THR37      -0.2866
     24  CB         5.5130    0.1890    5.2970 C.3    37  THR37       0.1770
     25  OG1        4.7070   -0.2760    6.3910 O.3    37  THR37      -0.2211
     26  CG2        5.1190   -0.6200    4.0500 C.3    37  THR37       0.0375
     27  N          6.8490    4.3030    8.1330 N.3    39  PHE39      -0.1241
     28  CA         5.9560    5.4500    8.0310 C.3    39  PHE39       0.1605
     29  C          6.6740    6.7990    8.1870 C.2    39  PHE39       0.2264
     30  O          7.7100    6.9170    8.8650 O.2    39  PHE39      -0.2867
     31  CB         4.8500    5.3380    9.0900 C.3    39  PHE39       0.0534
     32  CG         3.6760    4.4830    8.6700 C.ar   39  PHE39      -0.0203
     33  CD1        3.8520    3.3610    7.8630 C.ar   39  PHE39      -0.0042
     34  CD2        2.3880    4.7930    9.1190 C.ar   39  PHE39      -0.0042
     35  CE1        2.7610    2.5590    7.5090 C.ar   39  PHE39      -0.0003
     36  CE2        1.2950    3.9990    8.7680 C.ar   39  PHE39      -0.0003
     37  CZ         1.4830    2.8840    7.9630 C.ar   39  PHE39      -0.0000
     38  N         -1.5230    7.9400    3.5300 N.3    53  PHE53      -0.1241
     39  CA        -0.3430    7.3060    4.1060 C.3    53  PHE53       0.1605
     40  C          0.8730    7.6990    3.2850 C.2    53  PHE53       0.2264
     41  O          0.8420    7.6270    2.0540 O.2    53  PHE53      -0.2867
     42  CB        -0.4570    5.7760    4.0280 C.3    53  PHE53       0.0534
     43  CG        -1.4890    5.1740    4.9320 C.ar   53  PHE53      -0.0203
     44  CD1       -1.1130    4.5910    6.1370 C.ar   53  PHE53      -0.0042
     45  CD2       -2.8290    5.1310    4.5540 C.ar   53  PHE53      -0.0042
     46  CE1       -2.0490    3.9670    6.9540 C.ar   53  PHE53      -0.0003
     47  CE2       -3.7750    4.5120    5.3610 C.ar   53  PHE53      -0.0003
     48  CZ        -3.3830    3.9250    6.5660 C.ar   53  PHE53      -0.0000
     49  N          4.8680    6.7160    3.2430 N.3    55  PHE55      -0.1241
     50  CA         5.8780    5.8660    3.8420 C.3    55  PHE55       0.1605
     51  C          6.9560    5.4880    2.8450 C.2    55  PHE55       0.2264
     52  O          6.8360    5.7720    1.6510 O.2    55  PHE55      -0.2867
     53  CB         5.2390    4.5940    4.4240 C.3    55  PHE55       0.0534
     54  CG         4.4350    3.7850    3.4230 C.ar   55  PHE55      -0.0203
     55  CD1        3.0790    4.0320    3.2370 C.ar   55  PHE55      -0.0042
     56  CD2        5.0320    2.7520    2.7030 C.ar   55  PHE55      -0.0042
     57  CE1        2.3230    3.2540    2.3520 C.ar   55  PHE55      -0.0003
     58  CE2        4.2830    1.9700    1.8160 C.ar   55  PHE55      -0.0003
     59  CZ         2.9290    2.2220    1.6450 C.ar   55  PHE55      -0.0000
     60  N         -0.3380    6.3790   -0.3350 N.3    68  VAL68      -0.1245
     61  CA        -1.5510    5.5810   -0.4750 C.3    68  VAL68       0.1561
     62  C         -2.7180    6.3130    0.1810 C.2    68  VAL68       0.2260
     63  O         -2.5800    6.8560    1.2790 O.2    68  VAL68      -0.2867
     64  CB        -1.3970    4.1950    0.2040 C.3    68  VAL68       0.0252
     65  CG1       -2.7130    3.4360    0.1470 C.3    68  VAL68       0.0019
     66  CG2       -0.2990    3.3900   -0.4840 C.3    68  VAL68       0.0019
     67  N         -7.9800    0.2140    0.9130 N.3    80  ALA80      -0.1245
     68  CA        -6.9590    0.8780    0.1290 C.3    80  ALA80       0.1562
     69  C         -6.2700   -0.1150   -0.7810 C.2    80  ALA80       0.2260
     70  O         -6.2100   -1.3060   -0.4830 O.2    80  ALA80      -0.2867
     71  CB        -5.9310    1.5340    1.0550 C.3    80  ALA80       0.0290
     72  N         -2.8700   -1.3780   -2.3830 N.3    82  TYR82      -0.1241
     73  CA        -1.4270   -1.3850   -2.2050 C.3    82  TYR82       0.1605
     74  C         -0.9720   -2.8290   -2.1640 C.2    82  TYR82       0.2264
     75  O         -1.3040   -3.5610   -1.2270 O.2    82  TYR82      -0.2867
     76  CB        -1.0210   -0.6930   -0.9010 C.3    82  TYR82       0.0534
     77  CG         0.4620   -0.8000   -0.6520 C.ar   82  TYR82      -0.0201
     78  CD1        1.3730   -0.1190   -1.4600 C.ar   82  TYR82      -0.0009
     79  CD2        0.9610   -1.6370    0.3460 C.ar   82  TYR82      -0.0009
     80  CE1        2.7470   -0.2730   -1.2820 C.ar   82  TYR82       0.0417
     81  CE2        2.3320   -1.7990    0.5300 C.ar   82  TYR82       0.0417
     82  CZ         3.2160   -1.1150   -0.2900 C.ar   82  TYR82       0.1957
     83  OH         4.5680   -1.2930   -0.1230 O.3    82  TYR82      -0.2866
     84  N         -6.5880   -4.0520    0.4330 N.3    86  ASN86      -0.1240
     85  CA        -6.4230   -4.0410    1.8750 C.3    86  ASN86       0.1653
     86  C         -7.6630   -3.5300    2.5810 C.2    86  ASN86       0.2266
     87  O         -8.3380   -2.6300    2.0970 O.2    86  ASN86      -0.2867
     88  CB        -5.2510   -3.1390    2.2720 C.3    86  ASN86       0.1155
     89  CG        -3.9830   -3.4600    1.5240 C.2    86  ASN86       0.2627
     90  OD1       -3.7420   -2.9500    0.4240 O.2    86  ASN86      -0.2716
     91  ND2       -3.1610   -4.3160    2.1090 N.am   86  ASN86      -0.0877
     92  N         -8.3590   -2.3930    6.4770 N.3    88  PHE88      -0.1241
     93  CA        -7.7500   -2.2830    7.7900 C.3    88  PHE88       0.1605
     94  C         -8.6420   -1.5960    8.8010 C.2    88  PHE88       0.2264
     95  O         -9.5530   -0.8380    8.4480 O.2    88  PHE88      -0.2867
     96  CB        -6.3860   -1.5920    7.6880 C.3    88  PHE88       0.0534
     97  CG        -6.4570   -0.1050    7.5580 C.ar   88  PHE88      -0.0203
     98  CD1       -6.6600    0.6900    8.6840 C.ar   88  PHE88      -0.0042
     99  CD2       -6.2720    0.5080    6.3260 C.ar   88  PHE88      -0.0042
    100  CE1       -6.6730    2.0660    8.5910 C.ar   88  PHE88      -0.0003
    101  CE2       -6.2840    1.8990    6.2220 C.ar   88  PHE88      -0.0003
    102  CZ        -6.4840    2.6770    7.3600 C.ar   88  PHE88      -0.0000
    103  N         -3.1490   -0.8700   14.7310 N.3   100  ALA100     -0.1231
    104  CA        -4.0260   -1.2530   13.6370 C.3   100  ALA100      0.1694
    105  C         -3.9000   -2.6950   13.1850 C.2   100  ALA100      0.2592
    106  O         -2.8740   -3.3540   13.3920 O.2   100  ALA100     -0.2718
    107  CB        -3.7910   -0.3230   12.4580 C.3   100  ALA100      0.0304
    108  N         -4.9720   -3.1670   12.5530 N.am  101  HIS101     -0.1962
    109  CA        -5.0700   -4.5190   12.0310 C.3   101  HIS101      0.1787
    110  C         -5.3830   -4.4080   10.5400 C.2   101  HIS101      0.2620
    111  O         -6.3450   -3.7450   10.1550 O.2   101  HIS101     -0.2715
    112  CB        -6.2050   -5.2560   12.7500 C.3   101  HIS101      0.0785
    113  CG        -6.5150   -6.6020   12.1760 C.ar  101  HIS101      0.0821
    114  ND1       -7.7730   -7.1640   12.2440 N.ar  101  HIS101     -0.2267
    115  CD2       -5.7350   -7.5030   11.5330 C.ar  101  HIS101      0.1154
    116  CE1       -7.7550   -8.3520   11.6650 C.ar  101  HIS101      0.1986
    117  NE2       -6.5290   -8.5810   11.2260 N.ar  101  HIS101     -0.2212
    118  N         -4.5730   -5.0510    9.7040 N.am  102  ASN102     -0.1972
    119  CA        -4.7920   -5.0070    8.2620 C.3   102  ASN102      0.1688
    120  C         -4.8940   -6.3850    7.6200 C.2   102  ASN102      0.2292
    121  O         -4.1530   -7.3040    7.9630 O.2   102  ASN102     -0.2864
    122  CB        -3.6630   -4.2360    7.5720 C.3   102  ASN102      0.1181
    123  CG        -3.8570   -4.1330    6.0610 C.2   102  ASN102      0.2629
    124  OD1       -3.0570   -4.6510    5.2770 O.2   102  ASN102     -0.2716
    125  ND2       -4.9200   -3.4560    5.6500 N.am  102  ASN102     -0.0877
    126  N         -1.9060   -8.4940    9.1500 N.3   114  LEU114     -0.1231
    127  CA        -0.8030   -7.7710    9.7670 C.3   114  LEU114      0.1693
    128  C         -1.2980   -6.9300   10.9260 C.2   114  LEU114      0.2593
    129  O         -2.4450   -6.4770   10.9310 O.2   114  LEU114     -0.2718
    130  CB        -0.1240   -6.8590    8.7420 C.3   114  LEU114      0.0284
    131  CG         0.4280   -7.5300    7.4770 C.3   114  LEU114      0.0019
    132  CD1       -0.5350   -7.2760    6.3230 C.3   114  LEU114      0.0001
    133  CD2        1.8080   -6.9870    7.1370 C.3   114  LEU114      0.0001
    134  N         -0.4350   -6.7530   11.9200 N.am  115  THR115     -0.1939
    135  CA        -0.7530   -5.9230   13.0730 C.3   115  THR115      0.2028
    136  C          0.3480   -4.8720   13.0970 C.2   115  THR115      0.2642
    137  O          1.4630   -5.1120   12.6290 O.2   115  THR115     -0.2714
    138  CB        -0.7190   -6.7080   14.4030 C.3   115  THR115      0.1808
    139  OG1        0.5450   -7.3680   14.5450 O.3   115  THR115     -0.2208
    140  CG2       -1.8540   -7.7290   14.4510 C.3   115  THR115      0.0379
    141  N          0.0350   -3.7000   13.6120 N.am  116  GLU116     -0.1976
    142  CA         1.0460   -2.6660   13.6420 C.3   116  GLU116      0.1602
    143  C          0.8630   -1.6650   14.7470 C.2   116  GLU116      0.2287
    144  O         -0.2660   -1.3880   15.1740 O.2   116  GLU116     -0.2864
    145  CB         1.1060   -1.8700   12.3050 C.3   116  GLU116      0.0415
    146  CG        -0.1360   -2.1750   11.4690 C.3   116  GLU116      0.1163
    147  CD         0.2480   -2.7850   10.1320 C.2   116  GLU116      0.3649
    148  OE1        1.2300   -2.2650    9.5610 O.co2 116  GLU116     -0.2457
    149  OE2       -0.4090   -3.7590    9.7070 O.co2 116  GLU116     -0.2457
    150  N          2.1410    2.2120   15.6300 N.3   118  PHE118     -0.1241
    151  CA         2.7720    3.4130   15.0930 C.3   118  PHE118      0.1605
    152  C          2.7190    4.5090   16.1460 C.2   118  PHE118      0.2264
    153  O          1.7640    4.5900   16.9240 O.2   118  PHE118     -0.2867
    154  CB         2.0510    3.8730   13.8220 C.3   118  PHE118      0.0534
    155  CG         1.9060    2.7850   12.7960 C.ar  118  PHE118     -0.0203
    156  CD1        0.8230    1.9110   12.8380 C.ar  118  PHE118     -0.0042
    157  CD2        2.8810    2.6020   11.8150 C.ar  118  PHE118     -0.0042
    158  CE1        0.7110    0.8690   11.9180 C.ar  118  PHE118     -0.0003
    159  CE2        2.7830    1.5610   10.8890 C.ar  118  PHE118     -0.0003
    160  CZ         1.6960    0.6920   10.9390 C.ar  118  PHE118     -0.0000
@<TRIPOS>BOND
     1    72    73    1
     2    73    74    1
     3    73    76    1
     4    74    75    2
     5    78    80   ar
     6    78    77   ar
     7    80    82   ar
     8    76    77    1
     9    69    70    2
    10    69    68    1
    11    77    79   ar
    12    66    64    1
    13    61    60    1
    14    61    62    1
    15    61    64    1
    16    82    83    1
    17    82    81   ar
    18    68    67    1
    19    68    71    1
    20    65    64    1
    21    62    63    2
    22    79    81   ar
    23    90    89    2
    24    84    85    1
    25    89    91   am
    26    89    88    1
    27    59    58   ar
    28    59    57   ar
    29    52    51    2
    30    58    56   ar
    31    85    88    1
    32    85    86    1
    33    17    19   ar
    34    17    15   ar
    35    41    40    2
    36    87    86    2
    37    19    18   ar
    38    57    55   ar
    39    15    14   ar
    40    56    54   ar
    41     9    10    1
    42    51    50    1
    43    55    54   ar
    44    49    50    1
    45    18    16   ar
    46    40    39    1
    47    54    53    1
    48    38    39    1
    49    14    16   ar
    50    14    13    1
    51    50    53    1
    52    10    13    1
    53    10    11    1
    54    42    39    1
    55    42    43    1
    56    26    24    1
    57    45    43   ar
    58    45    47   ar
    59    43    44   ar
    60    11    12    2
    61   124   123    2
    62    24    21    1
    63    24    25    1
    64    47    48   ar
    65    21    20    1
    66    21    22    1
    67   125   123   am
    68   123   122    1
    69    44    46   ar
    70   101    99   ar
    71   101   102   ar
    72   132   131    1
    73    99    97   ar
    74    92    93    1
    75    48    46   ar
    76    22    23    2
    77   133   131    1
    78   102   100   ar
    79   131   130    1
    80    35    33   ar
    81    35    37   ar
    82    97    96    1
    83    97    98   ar
    84   122   119    1
    85   120   121    2
    86   120   119    1
    87    96    93    1
    88    93    94    1
    89    33    32   ar
    90    37    36   ar
    91    28    27    1
    92    28    29    1
    93    28    31    1
    94    29    30    2
    95   119   118    1
    96    95    94    2
    97   100    98   ar
    98    32    31    1
    99    32    34   ar
   100   130   127    1
   101    36    34   ar
   102   126   127    1
   103     8     6    1
   104   148   147   ar
   105   118   110   am
   106   149   147   ar
   107   127   128    1
   108     7     5    1
   109   147   146    1
   110   111   110    2
   111   110   109    1
   112     6     5    1
   113   159   160   ar
   114   159   157   ar
   115     5     2    1
   116   128   129    2
   117   128   134   am
   118   160   158   ar
   119   117   115   ar
   120   117   116   ar
   121   146   145    1
   122   115   113   ar
   123   116   114   ar
   124   157   155   ar
   125   158   156   ar
   126   134   135    1
   127   109   108    1
   128   109   112    1
   129   113   114   ar
   130   113   112    1
   131   145   142    1
   132     2     3    1
   133     2     1    1
   134   107   104    1
   135     4     3    2
   136   108   105   am
   137   137   136    2
   138   155   156   ar
   139   155   154    1
   140   135   136    1
   141   135   138    1
   142   136   141   am
   143   105   106    2
   144   105   104    1
   145   141   142    1
   146   104   103    1
   147   142   143    1
   148   154   151    1
   149   138   140    1
   150   138   139    1
   151   143   144    2
   152   151   150    1
   153   151   152    1
   154   152   153    2
