@<TRIPOS>MOLECULE
tmp/1gt1B01.pdb
 143 134 0 0 0
SMALL
GASTEIGER

@<TRIPOS>ATOM
      1  N         17.4930   22.6960   13.3090 N.3    20  ILE20      -0.1245
      2  CA        18.8180   23.1130   13.7710 C.3    20  ILE20       0.1561
      3  C         19.1180   24.4120   13.0160 C.2    20  ILE20       0.2260
      4  O         18.9660   24.4670   11.7860 O.2    20  ILE20      -0.2867
      5  CB        19.9520   22.0930   13.4840 C.3    20  ILE20       0.0252
      6  CG1       19.7660   20.8290   14.3340 C.3    20  ILE20       0.0019
      7  CG2       21.3290   22.7470   13.8260 C.3    20  ILE20       0.0019
      8  CD1       20.8590   19.7610   14.1340 C.3    20  ILE20       0.0001
      9  N         27.4020   19.6540   11.2940 N.3    34  PHE34      -0.1241
     10  CA        26.3010   19.7810   12.2400 C.3    34  PHE34       0.1605
     11  C         24.9090   19.5240   11.6800 C.2    34  PHE34       0.2264
     12  O         23.9020   19.8930   12.2960 O.2    34  PHE34      -0.2867
     13  CB        26.3620   21.1290   12.9610 C.3    34  PHE34       0.0534
     14  CG        27.4340   21.1790   14.0060 C.ar   34  PHE34      -0.0203
     15  CD1       28.7350   21.5540   13.6690 C.ar   34  PHE34      -0.0042
     16  CD2       27.1710   20.7520   15.3050 C.ar   34  PHE34      -0.0042
     17  CE1       29.7660   21.4970   14.6090 C.ar   34  PHE34      -0.0003
     18  CE2       28.1910   20.6890   16.2570 C.ar   34  PHE34      -0.0003
     19  CZ        29.4950   21.0630   15.9060 C.ar   34  PHE34      -0.0000
     20  N         23.0920   17.0950   11.7490 N.3    36  THR36      -0.1218
     21  CA        22.9150   15.8460   12.4530 C.3    36  THR36       0.1862
     22  C         21.5200   15.2970   12.7170 C.2    36  THR36       0.2287
     23  O         20.6830   15.9700   13.3120 O.2    36  THR36      -0.2866
     24  CB        23.6420   15.9670   13.8080 C.3    36  THR36       0.1770
     25  OG1       23.0170   17.0040   14.5680 O.3    36  THR36      -0.2211
     26  CG2       25.1150   16.3720   13.5970 C.3    36  THR36       0.0375
     27  N         19.5360   12.9530   14.8710 N.3    38  PHE38      -0.1241
     28  CA        19.6210   12.2070   16.1220 C.3    38  PHE38       0.1605
     29  C         18.9470   10.8240   16.0690 C.2    38  PHE38       0.2264
     30  O         17.9480   10.6100   15.3630 O.2    38  PHE38      -0.2867
     31  CB        19.0200   13.0210   17.2790 C.3    38  PHE38       0.0534
     32  CG        19.9550   14.0580   17.8580 C.ar   38  PHE38      -0.0203
     33  CD1       19.7650   14.5240   19.1650 C.ar   38  PHE38      -0.0042
     34  CD2       21.0020   14.5880   17.1000 C.ar   38  PHE38      -0.0042
     35  CE1       20.6020   15.5000   19.7070 C.ar   38  PHE38      -0.0003
     36  CE2       21.8500   15.5670   17.6290 C.ar   38  PHE38      -0.0003
     37  CZ        21.6540   16.0250   18.9330 C.ar   38  PHE38      -0.0000
     38  N         25.3860   11.0130   23.0550 N.3    52  PHE52      -0.1241
     39  CA        24.6790   11.3570   21.8270 C.3    52  PHE52       0.1605
     40  C         24.9720   10.3400   20.7440 C.2    52  PHE52       0.2264
     41  O         26.1350    9.9910   20.5160 O.2    52  PHE52      -0.2867
     42  CB        25.1600   12.7090   21.2910 C.3    52  PHE52       0.0534
     43  CG        24.7330   13.8770   22.1010 C.ar   52  PHE52      -0.0203
     44  CD1       23.5880   14.5840   21.7620 C.ar   52  PHE52      -0.0042
     45  CD2       25.4890   14.3010   23.1930 C.ar   52  PHE52      -0.0042
     46  CE1       23.1950   15.7010   22.4930 C.ar   52  PHE52      -0.0003
     47  CE2       25.1030   15.4200   23.9310 C.ar   52  PHE52      -0.0003
     48  CZ        23.9510   16.1220   23.5770 C.ar   52  PHE52      -0.0000
     49  N         24.1040    9.8620   16.7420 N.3    54  PHE54      -0.1241
     50  CA        23.4670   10.4930   15.5990 C.3    54  PHE54       0.1605
     51  C         24.1290   10.0570   14.3100 C.2    54  PHE54       0.2264
     52  O         25.1030    9.3090   14.3220 O.2    54  PHE54      -0.2867
     53  CB        23.4950   12.0280   15.7180 C.3    54  PHE54       0.0534
     54  CG        24.8750   12.6100   15.9500 C.ar   54  PHE54      -0.0203
     55  CD1       25.3710   12.7770   17.2440 C.ar   54  PHE54      -0.0042
     56  CD2       25.6750   12.9990   14.8740 C.ar   54  PHE54      -0.0042
     57  CE1       26.6410   13.3250   17.4590 C.ar   54  PHE54      -0.0003
     58  CE2       26.9480   13.5500   15.0760 C.ar   54  PHE54      -0.0003
     59  CZ        27.4360   13.7160   16.3630 C.ar   54  PHE54      -0.0000
     60  N         29.0180   10.6620   20.6130 N.3    67  VAL67      -0.1245
     61  CA        29.7150   11.7220   21.3300 C.3    67  VAL67       0.1561
     62  C         29.2450   11.7310   22.7820 C.2    67  VAL67       0.2260
     63  O         28.0470   11.7010   23.0500 O.2    67  VAL67      -0.2867
     64  CB        29.4270   13.1120   20.7200 C.3    67  VAL67       0.0252
     65  CG1       30.0260   14.2050   21.6010 C.3    67  VAL67       0.0019
     66  CG2       30.0070   13.1910   19.3030 C.3    67  VAL67       0.0019
     67  N         29.1510   13.8550   26.2220 N.3    69  ALA69      -0.1245
     68  CA        29.3210   15.2050   26.7460 C.3    69  ALA69       0.1562
     69  C         29.3720   15.0840   28.2690 C.2    69  ALA69       0.2260
     70  O         28.7200   14.2140   28.8290 O.2    69  ALA69      -0.2867
     71  CB        28.1510   16.0840   26.3320 C.3    69  ALA69       0.0290
     72  N         31.8630   18.9400   25.0780 N.3    79  ALA79      -0.1245
     73  CA        32.0080   17.7470   24.2700 C.3    79  ALA79       0.1562
     74  C         32.9830   18.0370   23.1520 C.2    79  ALA79       0.2260
     75  O         33.1070   19.1740   22.7070 O.2    79  ALA79      -0.2867
     76  CB        30.6380   17.3080   23.6950 C.3    79  ALA79       0.0290
     77  N         33.8380   17.3660   19.4060 N.3    81  TYR81      -0.1241
     78  CA        33.2570   16.9700   18.1250 C.3    81  TYR81       0.1605
     79  C         33.5050   18.1040   17.1360 C.2    81  TYR81       0.2264
     80  O         33.0000   19.2080   17.3010 O.2    81  TYR81      -0.2867
     81  CB        31.7470   16.7000   18.2540 C.3    81  TYR81       0.0534
     82  CG        31.0920   16.4130   16.9140 C.ar   81  TYR81      -0.0201
     83  CD1       31.3410   15.2140   16.2380 C.ar   81  TYR81      -0.0009
     84  CD2       30.2720   17.3600   16.3010 C.ar   81  TYR81      -0.0009
     85  CE1       30.7890   14.9650   14.9810 C.ar   81  TYR81       0.0417
     86  CE2       29.7140   17.1210   15.0340 C.ar   81  TYR81       0.0417
     87  CZ        29.9800   15.9230   14.3880 C.ar   81  TYR81       0.1957
     88  OH        29.4420   15.6790   13.1450 O.3    81  TYR81      -0.2866
     89  N         33.1240   22.0570   21.9880 N.3    85  ASN85      -0.1240
     90  CA        31.7360   22.4910   22.1040 C.3    85  ASN85       0.1653
     91  C         31.3360   22.6940   23.5510 C.2    85  ASN85       0.2266
     92  O         31.7670   21.9430   24.4230 O.2    85  ASN85      -0.2867
     93  CB        30.7950   21.4210   21.5470 C.3    85  ASN85       0.1155
     94  CG        31.0640   21.1040   20.0950 C.2    85  ASN85       0.2627
     95  OD1       30.6090   21.8240   19.2090 O.2    85  ASN85      -0.2716
     96  ND2       31.8150   20.0310   19.8440 N.am   85  ASN85      -0.0877
     97  N         27.7180   23.1660   25.3490 N.3    87  PHE87      -0.1241
     98  CA        26.2860   22.9640   25.1080 C.3    87  PHE87       0.1605
     99  C         25.3870   23.3050   26.3070 C.2    87  PHE87       0.2264
    100  O         25.6500   22.8450   27.4170 O.2    87  PHE87      -0.2867
    101  CB        26.1730   21.4800   24.7040 C.3    87  PHE87       0.0534
    102  CG        24.7790   20.9400   24.5690 C.ar   87  PHE87      -0.0203
    103  CD1       24.0350   20.5680   25.6840 C.ar   87  PHE87      -0.0042
    104  CD2       24.2650   20.6690   23.3100 C.ar   87  PHE87      -0.0042
    105  CE1       22.8050   19.9230   25.5340 C.ar   87  PHE87      -0.0003
    106  CE2       23.0420   20.0270   23.1490 C.ar   87  PHE87      -0.0003
    107  CZ        22.3130   19.6510   24.2590 C.ar   87  PHE87      -0.0000
    108  N         24.3350   25.5510   21.3210 N.3   101  ASN101     -0.1240
    109  CA        25.7060   25.0330   21.2940 C.3   101  ASN101      0.1653
    110  C         26.6640   26.0700   20.7310 C.2   101  ASN101      0.2266
    111  O         26.3390   26.7900   19.7850 O.2   101  ASN101     -0.2867
    112  CB        25.7840   23.7540   20.4290 C.3   101  ASN101      0.1155
    113  CG        27.1810   23.1110   20.4140 C.2   101  ASN101      0.2627
    114  OD1       27.8240   22.9870   19.3580 O.2   101  ASN101     -0.2716
    115  ND2       27.6400   22.6820   21.5660 N.am  101  ASN101     -0.0877
    116  N         24.9470   27.4140   17.4480 N.3   113  LEU113     -0.1245
    117  CA        23.8350   26.6710   16.8920 C.3   113  LEU113      0.1561
    118  C         22.7070   26.5080   17.8810 C.2   113  LEU113      0.2260
    119  O         22.9230   26.5010   19.0900 O.2   113  LEU113     -0.2867
    120  CB        24.2950   25.2900   16.4340 C.3   113  LEU113      0.0270
    121  CG        25.4120   25.2990   15.3870 C.3   113  LEU113      0.0019
    122  CD1       26.7470   25.0970   16.1120 C.3   113  LEU113      0.0001
    123  CD2       25.1890   24.2030   14.3550 C.3   113  LEU113      0.0001
    124  N         18.9550   24.2050   18.4950 N.3   115  GLU115     -0.1245
    125  CA        18.3230   22.9870   18.0350 C.3   115  GLU115      0.1567
    126  C         17.0960   22.6050   18.8270 C.2   115  GLU115      0.2260
    127  O         16.9820   22.9150   20.0100 O.2   115  GLU115     -0.2867
    128  CB        19.2980   21.7740   18.0730 C.3   115  GLU115      0.0388
    129  CG        20.5320   22.1320   18.8990 C.3   115  GLU115      0.1160
    130  CD        21.7940   22.0270   18.0590 C.2   115  GLU115      0.3649
    131  OE1       21.8600   21.0370   17.3000 O.co2 115  GLU115     -0.2457
    132  OE2       22.6560   22.9260   18.1580 O.co2 115  GLU115     -0.2457
    133  N         14.7850   19.1830   19.5110 N.3   117  PHE117     -0.1241
    134  CA        14.7240   17.7330   19.3710 C.3   117  PHE117      0.1605
    135  C         13.5000   17.2060   20.0880 C.2   117  PHE117      0.2264
    136  O         13.0810   17.7620   21.1020 O.2   117  PHE117     -0.2867
    137  CB        15.9800   17.0800   19.9580 C.3   117  PHE117      0.0534
    138  CG        17.2460   17.7000   19.4690 C.ar  117  PHE117     -0.0203
    139  CD1       17.7810   18.8150   20.1030 C.ar  117  PHE117     -0.0042
    140  CD2       17.8680   17.2110   18.3260 C.ar  117  PHE117     -0.0042
    141  CE1       18.9340   19.4440   19.6000 C.ar  117  PHE117     -0.0003
    142  CE2       19.0100   17.8250   17.8210 C.ar  117  PHE117     -0.0003
    143  CZ        19.5440   18.9400   18.4540 C.ar  117  PHE117     -0.0000
@<TRIPOS>BOND
     1     9    10    1
     2    11    10    1
     3    11    12    2
     4    20    21    1
     5     4     3    2
     6    10    13    1
     7    21    22    1
     8    21    24    1
     9    22    23    2
    10    13    14    1
    11     3     2    1
    12    88    87    1
    13     1     2    1
    14     5     2    1
    15     5     7    1
    16     5     6    1
    17    26    24    1
    18    15    14   ar
    19    15    17   ar
    20    24    25    1
    21    14    16   ar
    22     8     6    1
    23    51    52    2
    24    51    50    1
    25   123   121    1
    26    87    85   ar
    27    87    86   ar
    28    17    19   ar
    29    27    28    1
    30    56    58   ar
    31    56    54   ar
    32    85    83   ar
    33    86    84   ar
    34    58    59   ar
    35    16    18   ar
    36    30    29    2
    37   121   122    1
    38   121   120    1
    39    50    53    1
    40    50    49    1
    41    53    54    1
    42    19    18   ar
    43    54    55   ar
    44    29    28    1
    45    28    31    1
    46    83    82   ar
    47    84    82   ar
    48    59    57   ar
    49   120   117    1
    50   117   116    1
    51   117   118    1
    52    82    81    1
    53    34    36   ar
    54    34    32   ar
    55    79    80    2
    56    79    78    1
    57    55    57   ar
    58    31    32    1
    59   131   130   ar
    60    36    37   ar
    61   142   140   ar
    62   142   143   ar
    63    32    33   ar
    64   118   119    2
    65   125   128    1
    66   125   124    1
    67   125   126    1
    68   130   132   ar
    69   130   129    1
    70   128   129    1
    71    78    81    1
    72    78    77    1
    73   140   138   ar
    74   143   141   ar
    75   126   127    2
    76    37    35   ar
    77    33    35   ar
    78    95    94    2
    79    66    64    1
    80   114   113    2
    81   134   133    1
    82   134   137    1
    83   134   135    1
    84   138   137    1
    85   138   139   ar
    86   141   139   ar
    87   111   110    2
    88    96    94   am
    89   135   136    2
    90    94    93    1
    91   113   112    1
    92   113   115   am
    93   112   109    1
    94    41    40    2
    95    60    61    1
    96    64    61    1
    97    64    65    1
    98   110   109    1
    99    40    39    1
   100    42    39    1
   101    42    43    1
   102   109   108    1
   103    61    62    1
   104    93    90    1
   105    44    43   ar
   106    44    46   ar
   107    39    38    1
   108    89    90    1
   109    43    45   ar
   110    90    91    1
   111    46    48   ar
   112    75    74    2
   113    62    63    2
   114   106   104   ar
   115   106   107   ar
   116    74    73    1
   117    45    47   ar
   118   104   102   ar
   119    91    92    2
   120    48    47   ar
   121    76    73    1
   122   107   105   ar
   123    73    72    1
   124   102   101    1
   125   102   103   ar
   126   101    98    1
   127    98    97    1
   128    98    99    1
   129   105   103   ar
   130    67    68    1
   131    99   100    2
   132    71    68    1
   133    68    69    1
   134    69    70    2
