@<TRIPOS>MOLECULE
tmp/1gt1A00.pdb
 153 145 0 0 0
SMALL
GASTEIGER

@<TRIPOS>ATOM
      1  N          5.6200   -4.1400   13.3410 N.3    21  ILE21      -0.1245
      2  CA         4.6830   -4.6900   12.3690 C.3    21  ILE21       0.1561
      3  C          4.8260   -6.2050   12.4860 C.2    21  ILE21       0.2260
      4  O          5.9380   -6.7390   12.4800 O.2    21  ILE21      -0.2867
      5  CB         4.9510   -4.2500   10.8910 C.3    21  ILE21       0.0252
      6  CG1        4.6550   -2.7580   10.7280 C.3    21  ILE21       0.0019
      7  CG2        4.0340   -5.0370    9.9310 C.3    21  ILE21       0.0019
      8  CD1        4.8560   -2.2240    9.3100 C.3    21  ILE21       0.0001
      9  N          5.4840   -5.0890    2.7860 N.3    35  PHE35      -0.1241
     10  CA         4.9440   -4.4240    3.9610 C.3    35  PHE35       0.1605
     11  C          5.9600   -4.0500    5.0320 C.2    35  PHE35       0.2264
     12  O          5.5990   -3.8100    6.1850 O.2    35  PHE35      -0.2867
     13  CB         3.8100   -5.2500    4.5610 C.3    35  PHE35       0.0534
     14  CG         2.5440   -5.1800    3.7630 C.ar   35  PHE35      -0.0203
     15  CD1        2.3250   -6.0470    2.6980 C.ar   35  PHE35      -0.0042
     16  CD2        1.5900   -4.2080    4.0450 C.ar   35  PHE35      -0.0042
     17  CE1        1.1670   -5.9430    1.9230 C.ar   35  PHE35      -0.0003
     18  CE2        0.4340   -4.0920    3.2800 C.ar   35  PHE35      -0.0003
     19  CZ         0.2210   -4.9640    2.2130 C.ar   35  PHE35      -0.0000
     20  N          7.2340   -1.4520    5.8190 N.3    37  THR37      -0.1218
     21  CA         7.0010   -0.0350    5.6320 C.3    37  THR37       0.1862
     22  C          7.3770    0.9240    6.7550 C.2    37  THR37       0.2287
     23  O          6.8520    0.8310    7.8560 O.2    37  THR37      -0.2866
     24  CB         5.5130    0.1890    5.2970 C.3    37  THR37       0.1770
     25  OG1        4.7070   -0.2760    6.3910 O.3    37  THR37      -0.2211
     26  CG2        5.1190   -0.6200    4.0500 C.3    37  THR37       0.0375
     27  N          6.8490    4.3030    8.1330 N.3    39  PHE39      -0.1241
     28  CA         5.9560    5.4500    8.0310 C.3    39  PHE39       0.1605
     29  C          6.6740    6.7990    8.1870 C.2    39  PHE39       0.2264
     30  O          7.7100    6.9170    8.8650 O.2    39  PHE39      -0.2867
     31  CB         4.8500    5.3380    9.0900 C.3    39  PHE39       0.0534
     32  CG         3.6760    4.4830    8.6700 C.ar   39  PHE39      -0.0203
     33  CD1        3.8520    3.3610    7.8630 C.ar   39  PHE39      -0.0042
     34  CD2        2.3880    4.7930    9.1190 C.ar   39  PHE39      -0.0042
     35  CE1        2.7610    2.5590    7.5090 C.ar   39  PHE39      -0.0003
     36  CE2        1.2950    3.9990    8.7680 C.ar   39  PHE39      -0.0003
     37  CZ         1.4830    2.8840    7.9630 C.ar   39  PHE39      -0.0000
     38  N         -1.5230    7.9400    3.5300 N.3    53  PHE53      -0.1241
     39  CA        -0.3430    7.3060    4.1060 C.3    53  PHE53       0.1605
     40  C          0.8730    7.6990    3.2850 C.2    53  PHE53       0.2264
     41  O          0.8420    7.6270    2.0540 O.2    53  PHE53      -0.2867
     42  CB        -0.4570    5.7760    4.0280 C.3    53  PHE53       0.0534
     43  CG        -1.4890    5.1740    4.9320 C.ar   53  PHE53      -0.0203
     44  CD1       -1.1130    4.5910    6.1370 C.ar   53  PHE53      -0.0042
     45  CD2       -2.8290    5.1310    4.5540 C.ar   53  PHE53      -0.0042
     46  CE1       -2.0490    3.9670    6.9540 C.ar   53  PHE53      -0.0003
     47  CE2       -3.7750    4.5120    5.3610 C.ar   53  PHE53      -0.0003
     48  CZ        -3.3830    3.9250    6.5660 C.ar   53  PHE53      -0.0000
     49  N          4.8680    6.7160    3.2430 N.3    55  PHE55      -0.1241
     50  CA         5.8780    5.8660    3.8420 C.3    55  PHE55       0.1605
     51  C          6.9560    5.4880    2.8450 C.2    55  PHE55       0.2264
     52  O          6.8360    5.7720    1.6510 O.2    55  PHE55      -0.2867
     53  CB         5.2390    4.5940    4.4240 C.3    55  PHE55       0.0534
     54  CG         4.4350    3.7850    3.4230 C.ar   55  PHE55      -0.0203
     55  CD1        3.0790    4.0320    3.2370 C.ar   55  PHE55      -0.0042
     56  CD2        5.0320    2.7520    2.7030 C.ar   55  PHE55      -0.0042
     57  CE1        2.3230    3.2540    2.3520 C.ar   55  PHE55      -0.0003
     58  CE2        4.2830    1.9700    1.8160 C.ar   55  PHE55      -0.0003
     59  CZ         2.9290    2.2220    1.6450 C.ar   55  PHE55      -0.0000
     60  N         -0.3380    6.3790   -0.3350 N.3    68  VAL68      -0.1245
     61  CA        -1.5510    5.5810   -0.4750 C.3    68  VAL68       0.1561
     62  C         -2.7180    6.3130    0.1810 C.2    68  VAL68       0.2260
     63  O         -2.5800    6.8560    1.2790 O.2    68  VAL68      -0.2867
     64  CB        -1.3970    4.1950    0.2040 C.3    68  VAL68       0.0252
     65  CG1       -2.7130    3.4360    0.1470 C.3    68  VAL68       0.0019
     66  CG2       -0.2990    3.3900   -0.4840 C.3    68  VAL68       0.0019
     67  N         -2.8700   -1.3780   -2.3830 N.3    82  TYR82      -0.1241
     68  CA        -1.4270   -1.3850   -2.2050 C.3    82  TYR82       0.1605
     69  C         -0.9720   -2.8290   -2.1640 C.2    82  TYR82       0.2264
     70  O         -1.3040   -3.5610   -1.2270 O.2    82  TYR82      -0.2867
     71  CB        -1.0210   -0.6930   -0.9010 C.3    82  TYR82       0.0534
     72  CG         0.4620   -0.8000   -0.6520 C.ar   82  TYR82      -0.0201
     73  CD1        1.3730   -0.1190   -1.4600 C.ar   82  TYR82      -0.0009
     74  CD2        0.9610   -1.6370    0.3460 C.ar   82  TYR82      -0.0009
     75  CE1        2.7470   -0.2730   -1.2820 C.ar   82  TYR82       0.0417
     76  CE2        2.3320   -1.7990    0.5300 C.ar   82  TYR82       0.0417
     77  CZ         3.2160   -1.1150   -0.2900 C.ar   82  TYR82       0.1957
     78  OH         4.5680   -1.2930   -0.1230 O.3    82  TYR82      -0.2866
     79  N         -6.5880   -4.0520    0.4330 N.3    86  ASN86      -0.1240
     80  CA        -6.4230   -4.0410    1.8750 C.3    86  ASN86       0.1653
     81  C         -7.6630   -3.5300    2.5810 C.2    86  ASN86       0.2266
     82  O         -8.3380   -2.6300    2.0970 O.2    86  ASN86      -0.2867
     83  CB        -5.2510   -3.1390    2.2720 C.3    86  ASN86       0.1155
     84  CG        -3.9830   -3.4600    1.5240 C.2    86  ASN86       0.2627
     85  OD1       -3.7420   -2.9500    0.4240 O.2    86  ASN86      -0.2716
     86  ND2       -3.1610   -4.3160    2.1090 N.am   86  ASN86      -0.0877
     87  N         -8.3590   -2.3930    6.4770 N.3    88  PHE88      -0.1241
     88  CA        -7.7500   -2.2830    7.7900 C.3    88  PHE88       0.1605
     89  C         -8.6420   -1.5960    8.8010 C.2    88  PHE88       0.2264
     90  O         -9.5530   -0.8380    8.4480 O.2    88  PHE88      -0.2867
     91  CB        -6.3860   -1.5920    7.6880 C.3    88  PHE88       0.0534
     92  CG        -6.4570   -0.1050    7.5580 C.ar   88  PHE88      -0.0203
     93  CD1       -6.6600    0.6900    8.6840 C.ar   88  PHE88      -0.0042
     94  CD2       -6.2720    0.5080    6.3260 C.ar   88  PHE88      -0.0042
     95  CE1       -6.6730    2.0660    8.5910 C.ar   88  PHE88      -0.0003
     96  CE2       -6.2840    1.8990    6.2220 C.ar   88  PHE88      -0.0003
     97  CZ        -6.4840    2.6770    7.3600 C.ar   88  PHE88      -0.0000
     98  N         -1.0980    4.5610   17.5120 N.3    98  LEU98      -0.1245
     99  CA        -2.0950    3.9260   16.6700 C.3    98  LEU98       0.1561
    100  C         -1.7810    2.4390   16.6320 C.2    98  LEU98       0.2260
    101  O         -0.6410    2.0450   16.3790 O.2    98  LEU98      -0.2867
    102  CB        -2.0580    4.4930   15.2390 C.3    98  LEU98       0.0270
    103  CG        -2.7170    3.6380   14.1480 C.3    98  LEU98       0.0019
    104  CD1       -4.2070    3.5390   14.4090 C.3    98  LEU98       0.0001
    105  CD2       -2.4560    4.2430   12.7640 C.3    98  LEU98       0.0001
    106  N         -3.1490   -0.8700   14.7310 N.3   100  ALA100     -0.1245
    107  CA        -4.0260   -1.2530   13.6370 C.3   100  ALA100      0.1562
    108  C         -3.9000   -2.6950   13.1850 C.2   100  ALA100      0.2260
    109  O         -2.8740   -3.3540   13.3920 O.2   100  ALA100     -0.2867
    110  CB        -3.7910   -0.3230   12.4580 C.3   100  ALA100      0.0290
    111  N         -4.5730   -5.0510    9.7040 N.3   102  ASN102     -0.1240
    112  CA        -4.7920   -5.0070    8.2620 C.3   102  ASN102      0.1653
    113  C         -4.8940   -6.3850    7.6200 C.2   102  ASN102      0.2266
    114  O         -4.1530   -7.3040    7.9630 O.2   102  ASN102     -0.2867
    115  CB        -3.6630   -4.2360    7.5720 C.3   102  ASN102      0.1155
    116  CG        -3.8570   -4.1330    6.0610 C.2   102  ASN102      0.2627
    117  OD1       -3.0570   -4.6510    5.2770 O.2   102  ASN102     -0.2716
    118  ND2       -4.9200   -3.4560    5.6500 N.am  102  ASN102     -0.0877
    119  N         -1.9060   -8.4940    9.1500 N.3   114  LEU114     -0.1231
    120  CA        -0.8030   -7.7710    9.7670 C.3   114  LEU114      0.1693
    121  C         -1.2980   -6.9300   10.9260 C.2   114  LEU114      0.2593
    122  O         -2.4450   -6.4770   10.9310 O.2   114  LEU114     -0.2718
    123  CB        -0.1240   -6.8590    8.7420 C.3   114  LEU114      0.0284
    124  CG         0.4280   -7.5300    7.4770 C.3   114  LEU114      0.0019
    125  CD1       -0.5350   -7.2760    6.3230 C.3   114  LEU114      0.0001
    126  CD2        1.8080   -6.9870    7.1370 C.3   114  LEU114      0.0001
    127  N         -0.4350   -6.7530   11.9200 N.am  115  THR115     -0.1939
    128  CA        -0.7530   -5.9230   13.0730 C.3   115  THR115      0.2028
    129  C          0.3480   -4.8720   13.0970 C.2   115  THR115      0.2642
    130  O          1.4630   -5.1120   12.6290 O.2   115  THR115     -0.2714
    131  CB        -0.7190   -6.7080   14.4030 C.3   115  THR115      0.1808
    132  OG1        0.5450   -7.3680   14.5450 O.3   115  THR115     -0.2208
    133  CG2       -1.8540   -7.7290   14.4510 C.3   115  THR115      0.0379
    134  N          0.0350   -3.7000   13.6120 N.am  116  GLU116     -0.1976
    135  CA         1.0460   -2.6660   13.6420 C.3   116  GLU116      0.1602
    136  C          0.8630   -1.6650   14.7470 C.2   116  GLU116      0.2287
    137  O         -0.2660   -1.3880   15.1740 O.2   116  GLU116     -0.2864
    138  CB         1.1060   -1.8700   12.3050 C.3   116  GLU116      0.0415
    139  CG        -0.1360   -2.1750   11.4690 C.3   116  GLU116      0.1163
    140  CD         0.2480   -2.7850   10.1320 C.2   116  GLU116      0.3649
    141  OE1        1.2300   -2.2650    9.5610 O.co2 116  GLU116     -0.2457
    142  OE2       -0.4090   -3.7590    9.7070 O.co2 116  GLU116     -0.2457
    143  N          2.1410    2.2120   15.6300 N.3   118  PHE118     -0.1241
    144  CA         2.7720    3.4130   15.0930 C.3   118  PHE118      0.1605
    145  C          2.7190    4.5090   16.1460 C.2   118  PHE118      0.2264
    146  O          1.7640    4.5900   16.9240 O.2   118  PHE118     -0.2867
    147  CB         2.0510    3.8730   13.8220 C.3   118  PHE118      0.0534
    148  CG         1.9060    2.7850   12.7960 C.ar  118  PHE118     -0.0203
    149  CD1        0.8230    1.9110   12.8380 C.ar  118  PHE118     -0.0042
    150  CD2        2.8810    2.6020   11.8150 C.ar  118  PHE118     -0.0042
    151  CE1        0.7110    0.8690   11.9180 C.ar  118  PHE118     -0.0003
    152  CE2        2.7830    1.5610   10.8890 C.ar  118  PHE118     -0.0003
    153  CZ         1.6960    0.6920   10.9390 C.ar  118  PHE118     -0.0000
@<TRIPOS>BOND
     1    67    68    1
     2    68    69    1
     3    68    71    1
     4    69    70    2
     5    73    75   ar
     6    73    72   ar
     7    75    77   ar
     8    71    72    1
     9    72    74   ar
    10    66    64    1
    11    61    60    1
    12    61    62    1
    13    61    64    1
    14    77    78    1
    15    77    76   ar
    16    65    64    1
    17    62    63    2
    18    74    76   ar
    19    85    84    2
    20    79    80    1
    21    84    86   am
    22    84    83    1
    23    59    58   ar
    24    59    57   ar
    25    52    51    2
    26    58    56   ar
    27    80    83    1
    28    80    81    1
    29    17    19   ar
    30    17    15   ar
    31    41    40    2
    32    82    81    2
    33    19    18   ar
    34    57    55   ar
    35    15    14   ar
    36    56    54   ar
    37     9    10    1
    38    51    50    1
    39    55    54   ar
    40    49    50    1
    41    18    16   ar
    42    40    39    1
    43    54    53    1
    44    38    39    1
    45    14    16   ar
    46    14    13    1
    47    50    53    1
    48    10    13    1
    49    10    11    1
    50    42    39    1
    51    42    43    1
    52    26    24    1
    53    45    43   ar
    54    45    47   ar
    55    43    44   ar
    56    11    12    2
    57   117   116    2
    58    24    21    1
    59    24    25    1
    60    47    48   ar
    61    21    20    1
    62    21    22    1
    63   118   116   am
    64   116   115    1
    65    44    46   ar
    66    96    94   ar
    67    96    97   ar
    68   125   124    1
    69    94    92   ar
    70    87    88    1
    71    48    46   ar
    72    22    23    2
    73   126   124    1
    74    97    95   ar
    75   124   123    1
    76    35    33   ar
    77    35    37   ar
    78    92    91    1
    79    92    93   ar
    80   115   112    1
    81   113   114    2
    82   113   112    1
    83    91    88    1
    84    88    89    1
    85    33    32   ar
    86    37    36   ar
    87    28    27    1
    88    28    29    1
    89    28    31    1
    90    29    30    2
    91   112   111    1
    92    90    89    2
    93    95    93   ar
    94    32    31    1
    95    32    34   ar
    96   123   120    1
    97    36    34   ar
    98   119   120    1
    99     8     6    1
   100   141   140   ar
   101   142   140   ar
   102   120   121    1
   103     7     5    1
   104   140   139    1
   105     6     5    1
   106   152   153   ar
   107   152   150   ar
   108     5     2    1
   109   121   122    2
   110   121   127   am
   111   153   151   ar
   112   139   138    1
   113   150   148   ar
   114   151   149   ar
   115   127   128    1
   116   138   135    1
   117     2     3    1
   118     2     1    1
   119   110   107    1
   120     4     3    2
   121   130   129    2
   122   105   103    1
   123   148   149   ar
   124   148   147    1
   125   128   129    1
   126   128   131    1
   127   129   134   am
   128   108   109    2
   129   108   107    1
   130   134   135    1
   131   107   106    1
   132   135   136    1
   133   147   144    1
   134   103   104    1
   135   103   102    1
   136   131   133    1
   137   131   132    1
   138   136   137    2
   139   144   143    1
   140   144   145    1
   141   102    99    1
   142   145   146    2
   143   101   100    2
   144   100    99    1
   145    99    98    1
