@<TRIPOS>MOLECULE
tmp/1gt3A00.pdb
 155 146 0 0 0
SMALL
GASTEIGER

@<TRIPOS>ATOM
      1  N          5.6900   -4.0910   13.3590 N.3    22  ILE22      -0.1245
      2  CA         4.7510   -4.6340   12.3840 C.3    22  ILE22       0.1561
      3  C          4.9010   -6.1510   12.4890 C.2    22  ILE22       0.2260
      4  O          6.0130   -6.6680   12.4950 O.2    22  ILE22      -0.2867
      5  CB         5.0360   -4.2000   10.9170 C.3    22  ILE22       0.0252
      6  CG1        4.7900   -2.6980   10.7500 C.3    22  ILE22       0.0019
      7  CG2        4.0900   -4.9430    9.9680 C.3    22  ILE22       0.0019
      8  CD1        5.0150   -2.2010    9.3310 C.3    22  ILE22       0.0001
      9  N          5.5010   -4.9540    2.8330 N.3    36  PHE36      -0.1241
     10  CA         4.9690   -4.3230    4.0270 C.3    36  PHE36       0.1605
     11  C          5.9940   -3.9620    5.0870 C.2    36  PHE36       0.2264
     12  O          5.6380   -3.7450    6.2460 O.2    36  PHE36      -0.2867
     13  CB         3.8540   -5.1740    4.6240 C.3    36  PHE36       0.0534
     14  CG         2.5880   -5.1320    3.8190 C.ar   36  PHE36      -0.0203
     15  CD1        2.4200   -5.9580    2.7110 C.ar   36  PHE36      -0.0042
     16  CD2        1.6040   -4.2000    4.1130 C.ar   36  PHE36      -0.0042
     17  CE1        1.2850   -5.8460    1.9020 C.ar   36  PHE36      -0.0003
     18  CE2        0.4710   -4.0770    3.3160 C.ar   36  PHE36      -0.0003
     19  CZ         0.3110   -4.9030    2.2080 C.ar   36  PHE36      -0.0000
     20  N          7.3010   -1.3620    5.8470 N.3    38  THR38      -0.1218
     21  CA         7.1000    0.0660    5.6690 C.3    38  THR38       0.1862
     22  C          7.4780    0.9980    6.8050 C.2    38  THR38       0.2287
     23  O          6.9950    0.8560    7.9170 O.2    38  THR38      -0.2866
     24  CB         5.6270    0.3370    5.3150 C.3    38  THR38       0.1770
     25  OG1        4.7860   -0.1280    6.3790 O.3    38  THR38      -0.2211
     26  CG2        5.2420   -0.4010    4.0290 C.3    38  THR38       0.0375
     27  N          6.9080    4.3840    8.1400 N.3    40  PHE40      -0.1241
     28  CA         5.9970    5.5150    8.0410 C.3    40  PHE40       0.1605
     29  C          6.7290    6.8470    8.1760 C.2    40  PHE40       0.2264
     30  O          7.7820    6.9280    8.8220 O.2    40  PHE40      -0.2867
     31  CB         4.9110    5.4100    9.1160 C.3    40  PHE40       0.0534
     32  CG         3.7380    4.5390    8.7200 C.ar   40  PHE40      -0.0203
     33  CD1        3.9210    3.4290    7.8960 C.ar   40  PHE40      -0.0042
     34  CD2        2.4540    4.8140    9.2030 C.ar   40  PHE40      -0.0042
     35  CE1        2.8410    2.6000    7.5600 C.ar   40  PHE40      -0.0003
     36  CE2        1.3670    3.9880    8.8740 C.ar   40  PHE40      -0.0003
     37  CZ         1.5610    2.8840    8.0510 C.ar   40  PHE40      -0.0000
     38  N         -1.5190    7.9260    3.5030 N.3    54  PHE54      -0.1241
     39  CA        -0.3240    7.3140    4.0770 C.3    54  PHE54       0.1605
     40  C          0.8990    7.6950    3.2640 C.2    54  PHE54       0.2264
     41  O          0.8910    7.5730    2.0390 O.2    54  PHE54      -0.2867
     42  CB        -0.4370    5.7830    4.0450 C.3    54  PHE54       0.0534
     43  CG        -1.4840    5.2180    4.9570 C.ar   54  PHE54      -0.0203
     44  CD1       -1.1290    4.6920    6.1970 C.ar   54  PHE54      -0.0042
     45  CD2       -2.8220    5.1810    4.5700 C.ar   54  PHE54      -0.0042
     46  CE1       -2.0860    4.1360    7.0360 C.ar   54  PHE54      -0.0003
     47  CE2       -3.7890    4.6290    5.4000 C.ar   54  PHE54      -0.0003
     48  CZ        -3.4190    4.1020    6.6400 C.ar   54  PHE54      -0.0000
     49  N          4.8750    6.7370    3.2770 N.3    56  PHE56      -0.1241
     50  CA         5.8980    5.8950    3.8810 C.3    56  PHE56       0.1605
     51  C          6.9740    5.5390    2.8700 C.2    56  PHE56       0.2264
     52  O          6.8420    5.8370    1.6780 O.2    56  PHE56      -0.2867
     53  CB         5.2740    4.6120    4.4520 C.3    56  PHE56       0.0534
     54  CG         4.4870    3.8170    3.4490 C.ar   56  PHE56      -0.0203
     55  CD1        3.1540    4.1120    3.1970 C.ar   56  PHE56      -0.0042
     56  CD2        5.0860    2.7720    2.7520 C.ar   56  PHE56      -0.0042
     57  CE1        2.4270    3.3740    2.2660 C.ar   56  PHE56      -0.0003
     58  CE2        4.3690    2.0320    1.8220 C.ar   56  PHE56      -0.0003
     59  CZ         3.0370    2.3310    1.5780 C.ar   56  PHE56      -0.0000
     60  N         -0.3190    6.4320   -0.3000 N.3    69  VAL69      -0.1245
     61  CA        -1.5240    5.6240   -0.4180 C.3    69  VAL69       0.1561
     62  C         -2.7230    6.3390    0.1920 C.2    69  VAL69       0.2260
     63  O         -2.6400    6.9150    1.2770 O.2    69  VAL69      -0.2867
     64  CB        -1.3540    4.2500    0.2760 C.3    69  VAL69       0.0252
     65  CG1       -2.6780    3.5030    0.2800 C.3    69  VAL69       0.0019
     66  CG2       -0.2890    3.4280   -0.4480 C.3    69  VAL69       0.0019
     67  N         -6.5230    5.9590    1.6090 N.3    71  ALA71      -0.1245
     68  CA        -7.4900    5.0070    2.1370 C.3    71  ALA71       0.1562
     69  C         -8.8360    5.6940    2.3300 C.2    71  ALA71       0.2260
     70  O         -8.8990    6.8550    2.7420 O.2    71  ALA71      -0.2867
     71  CB        -6.9970    4.4410    3.4610 C.3    71  ALA71       0.0290
     72  N         -7.9770    0.2970    0.7850 N.3    81  ALA81      -0.1245
     73  CA        -6.9540    0.9410   -0.0190 C.3    81  ALA81       0.1562
     74  C         -6.2580   -0.0750   -0.9050 C.2    81  ALA81       0.2260
     75  O         -6.2250   -1.2670   -0.5920 O.2    81  ALA81      -0.2867
     76  CB        -5.9240    1.6280    0.8900 C.3    81  ALA81       0.0290
     77  N         -2.7840   -1.3430   -2.4860 N.3    83  TYR83      -0.1241
     78  CA        -1.3420   -1.3620   -2.2930 C.3    83  TYR83       0.1605
     79  C         -0.9260   -2.8250   -2.2420 C.2    83  TYR83       0.2264
     80  O         -1.3120   -3.5490   -1.3220 O.2    83  TYR83      -0.2867
     81  CB        -0.9480   -0.6770   -0.9750 C.3    83  TYR83       0.0534
     82  CG         0.5350   -0.7750   -0.6970 C.ar   83  TYR83      -0.0201
     83  CD1        1.4580   -0.1320   -1.5210 C.ar   83  TYR83      -0.0009
     84  CD2        1.0220   -1.5640    0.3460 C.ar   83  TYR83      -0.0009
     85  CE1        2.8260   -0.2800   -1.3220 C.ar   83  TYR83       0.0417
     86  CE2        2.3910   -1.7200    0.5550 C.ar   83  TYR83       0.0417
     87  CZ         3.2870   -1.0770   -0.2860 C.ar   83  TYR83       0.1957
     88  OH         4.6390   -1.2360   -0.1010 O.3    83  TYR83      -0.2866
     89  N         -6.6040   -3.9850    0.3570 N.3    87  ASN87      -0.1240
     90  CA        -6.4400   -3.9640    1.8010 C.3    87  ASN87       0.1653
     91  C         -7.6700   -3.4790    2.5450 C.2    87  ASN87       0.2266
     92  O         -8.3920   -2.6040    2.0770 O.2    87  ASN87      -0.2867
     93  CB        -5.2520   -3.0700    2.1890 C.3    87  ASN87       0.1155
     94  CG        -3.9780   -3.4390    1.4630 C.2    87  ASN87       0.2627
     95  OD1       -3.7150   -2.9600    0.3560 O.2    87  ASN87      -0.2716
     96  ND2       -3.1810   -4.3030    2.0810 N.am   87  ASN87      -0.0877
     97  N         -8.2540   -2.2600    6.3350 N.3    89  PHE89      -0.1241
     98  CA        -7.5500   -1.7430    7.5140 C.3    89  PHE89       0.1605
     99  C         -8.4400   -1.2610    8.6810 C.2    89  PHE89       0.2264
    100  O         -9.3590   -0.4730    8.4580 O.2    89  PHE89      -0.2867
    101  CB        -6.6870   -0.6050    6.9350 C.3    89  PHE89       0.0534
    102  CG        -5.8600    0.1600    7.9220 C.ar   89  PHE89      -0.0203
    103  CD1       -6.4030    1.2190    8.6480 C.ar   89  PHE89      -0.0042
    104  CD2       -4.4960   -0.0950    8.0230 C.ar   89  PHE89      -0.0042
    105  CE1       -5.5890    2.0200    9.4530 C.ar   89  PHE89      -0.0003
    106  CE2       -3.6760    0.6940    8.8200 C.ar   89  PHE89      -0.0003
    107  CZ        -4.2220    1.7570    9.5360 C.ar   89  PHE89      -0.0000
    108  N         -3.0830   -0.7800   14.7260 N.3   101  ALA101     -0.1245
    109  CA        -3.9860   -1.1670   13.6540 C.3   101  ALA101      0.1562
    110  C         -3.8340   -2.6130   13.2130 C.2   101  ALA101      0.2260
    111  O         -2.8190   -3.2600   13.4800 O.2   101  ALA101     -0.2867
    112  CB        -3.7890   -0.2430   12.4610 C.3   101  ALA101      0.0290
    113  N         -4.4560   -4.9960    9.6720 N.3   103  ASN103     -0.1240
    114  CA        -4.6750   -4.9180    8.2300 C.3   103  ASN103      0.1653
    115  C         -4.7780   -6.2940    7.5790 C.2   103  ASN103      0.2266
    116  O         -4.0250   -7.2110    7.9050 O.2   103  ASN103     -0.2867
    117  CB        -3.5430   -4.1310    7.5600 C.3   103  ASN103      0.1155
    118  CG        -3.7610   -3.9440    6.0610 C.2   103  ASN103      0.2627
    119  OD1       -3.0350   -4.5020    5.2340 O.2   103  ASN103     -0.2716
    120  ND2       -4.7650   -3.1540    5.7110 N.am  103  ASN103     -0.0877
    121  N         -1.8590   -8.4330    9.1790 N.3   115  LEU115     -0.1231
    122  CA        -0.7490   -7.7190    9.7920 C.3   115  LEU115      0.1693
    123  C         -1.2470   -6.8660   10.9390 C.2   115  LEU115      0.2593
    124  O         -2.3940   -6.4180   10.9340 O.2   115  LEU115     -0.2718
    125  CB        -0.0560   -6.8210    8.7660 C.3   115  LEU115      0.0284
    126  CG         0.4710   -7.4740    7.4840 C.3   115  LEU115      0.0019
    127  CD1       -0.4900   -7.1660    6.3330 C.3   115  LEU115      0.0001
    128  CD2        1.8610   -6.9400    7.1590 C.3   115  LEU115      0.0001
    129  N         -0.3810   -6.6680   11.9270 N.am  116  THR116     -0.1939
    130  CA        -0.7020   -5.8500   13.0830 C.3   116  THR116      0.2028
    131  C          0.4080   -4.8150   13.1300 C.2   116  THR116      0.2642
    132  O          1.5190   -5.0690   12.6620 O.2   116  THR116     -0.2714
    133  CB        -0.6850   -6.6550   14.4080 C.3   116  THR116      0.1808
    134  OG1        0.5920   -7.2860   14.5720 O.3   116  THR116     -0.2208
    135  CG2       -1.7860   -7.7130   14.4120 C.3   116  THR116      0.0379
    136  N          0.1110   -3.6510   13.6840 N.am  117  GLU117     -0.1976
    137  CA         1.1350   -2.6340   13.7400 C.3   117  GLU117      0.1602
    138  C          0.9500   -1.6210   14.8410 C.2   117  GLU117      0.2287
    139  O         -0.1630   -1.3580   15.2960 O.2   117  GLU117     -0.2864
    140  CB         1.2410   -1.8390   12.4060 C.3   117  GLU117      0.0415
    141  CG         0.0160   -2.1240   11.5390 C.3   117  GLU117      0.1163
    142  CD         0.4230   -2.7390   10.2110 C.2   117  GLU117      0.3649
    143  OE1        1.4270   -2.2340    9.6650 O.co2 117  GLU117     -0.2457
    144  OE2       -0.2380   -3.7030    9.7690 O.co2 117  GLU117     -0.2457
    145  N          2.2610    2.2940   15.6690 N.3   119  PHE119     -0.1241
    146  CA         2.9210    3.4880   15.1510 C.3   119  PHE119      0.1605
    147  C          2.8460    4.5650   16.2150 C.2   119  PHE119      0.2264
    148  O          1.9030    4.5980   16.9990 O.2   119  PHE119     -0.2867
    149  CB         2.2240    3.9720   13.8800 C.3   119  PHE119      0.0534
    150  CG         2.0580    2.8980   12.8600 C.ar  119  PHE119     -0.0203
    151  CD1        0.9680    2.0360   12.9130 C.ar  119  PHE119     -0.0042
    152  CD2        3.0330    2.6970   11.8860 C.ar  119  PHE119     -0.0042
    153  CE1        0.8540    0.9810   12.0050 C.ar  119  PHE119     -0.0003
    154  CE2        2.9290    1.6460   10.9760 C.ar  119  PHE119     -0.0003
    155  CZ         1.8370    0.7880   11.0360 C.ar  119  PHE119     -0.0000
@<TRIPOS>BOND
     1    77    78    1
     2    78    79    1
     3    78    81    1
     4    79    80    2
     5    83    85   ar
     6    83    82   ar
     7    85    87   ar
     8    81    82    1
     9    74    75    2
    10    74    73    1
    11    82    84   ar
    12    66    64    1
    13    61    60    1
    14    61    62    1
    15    61    64    1
    16    87    88    1
    17    87    86   ar
    18    73    72    1
    19    73    76    1
    20    62    63    2
    21    64    65    1
    22    84    86   ar
    23    95    94    2
    24    89    90    1
    25    94    96   am
    26    94    93    1
    27    59    58   ar
    28    59    57   ar
    29    67    68    1
    30    52    51    2
    31    90    93    1
    32    90    91    1
    33    58    56   ar
    34    17    19   ar
    35    17    15   ar
    36    41    40    2
    37    92    91    2
    38    68    69    1
    39    68    71    1
    40    19    18   ar
    41    57    55   ar
    42    69    70    2
    43    15    14   ar
    44    56    54   ar
    45     9    10    1
    46    51    50    1
    47    55    54   ar
    48    40    39    1
    49    49    50    1
    50    18    16   ar
    51    54    53    1
    52    38    39    1
    53    14    16   ar
    54    14    13    1
    55    50    53    1
    56    10    13    1
    57    10    11    1
    58    26    24    1
    59    42    39    1
    60    42    43    1
    61    45    43   ar
    62    45    47   ar
    63    43    44   ar
    64    11    12    2
    65   119   118    2
    66    24    21    1
    67    24    25    1
    68    47    48   ar
    69    21    20    1
    70    21    22    1
    71   120   118   am
    72   118   117    1
    73    44    46   ar
    74   127   126    1
    75    97    98    1
    76    48    46   ar
    77    22    23    2
    78   101    98    1
    79   101   102    1
    80   128   126    1
    81   126   125    1
    82    98    99    1
    83   117   114    1
    84    35    33   ar
    85    35    37   ar
    86   115   116    2
    87   115   114    1
    88    33    32   ar
    89   102   104   ar
    90   102   103   ar
    91   104   106   ar
    92    28    27    1
    93    28    29    1
    94    28    31    1
    95    37    36   ar
    96    29    30    2
    97   114   113    1
    98   100    99    2
    99   103   105   ar
   100    32    31    1
   101    32    34   ar
   102   125   122    1
   103   106   107   ar
   104    36    34   ar
   105   121   122    1
   106     8     6    1
   107   105   107   ar
   108   143   142   ar
   109   144   142   ar
   110   122   123    1
   111     7     5    1
   112   142   141    1
   113     6     5    1
   114     5     2    1
   115   124   123    2
   116   123   129   am
   117   154   155   ar
   118   154   152   ar
   119   155   153   ar
   120   141   140    1
   121   152   150   ar
   122   129   130    1
   123   153   151   ar
   124     2     3    1
   125     2     1    1
   126   140   137    1
   127   112   109    1
   128     3     4    2
   129   132   131    2
   130   150   151   ar
   131   150   149    1
   132   130   131    1
   133   130   133    1
   134   131   136   am
   135   110   111    2
   136   110   109    1
   137   109   108    1
   138   136   137    1
   139   137   138    1
   140   149   146    1
   141   133   135    1
   142   133   134    1
   143   138   139    2
   144   146   145    1
   145   146   147    1
   146   147   148    2
