@<TRIPOS>MOLECULE
tmp/1gt4A00.pdb
 143 134 0 0 0
SMALL
GASTEIGER

@<TRIPOS>ATOM
      1  N          5.5150   -4.0110   13.2230 N.3    22  ILE22      -0.1245
      2  CA         4.5860   -4.5750   12.2760 C.3    22  ILE22       0.1561
      3  C          4.7430   -6.0900   12.3850 C.2    22  ILE22       0.2260
      4  O          5.8500   -6.6190   12.2210 O.2    22  ILE22      -0.2867
      5  CB         4.8510   -4.1330   10.8380 C.3    22  ILE22       0.0252
      6  CG1        4.4960   -2.6500   10.6740 C.3    22  ILE22       0.0019
      7  CG2        3.9970   -4.9640    9.8940 C.3    22  ILE22       0.0019
      8  CD1        4.5910   -2.1410    9.2370 C.3    22  ILE22       0.0001
      9  N          5.3640   -5.1420    2.6740 N.3    36  PHE36      -0.1241
     10  CA         4.7830   -4.4890    3.8210 C.3    36  PHE36       0.1605
     11  C          5.7950   -4.1100    4.9000 C.2    36  PHE36       0.2264
     12  O          5.4470   -3.9830    6.0740 O.2    36  PHE36      -0.2867
     13  CB         3.6370   -5.3360    4.3800 C.3    36  PHE36       0.0534
     14  CG         2.3780   -5.2270    3.5690 C.ar   36  PHE36      -0.0203
     15  CD1        2.1610   -6.0520    2.4650 C.ar   36  PHE36      -0.0042
     16  CD2        1.4390   -4.2390    3.8630 C.ar   36  PHE36      -0.0042
     17  CE1        1.0270   -5.8950    1.6670 C.ar   36  PHE36      -0.0003
     18  CE2        0.3050   -4.0740    3.0730 C.ar   36  PHE36      -0.0003
     19  CZ         0.0990   -4.9000    1.9720 C.ar   36  PHE36      -0.0000
     20  N          7.0590   -1.3710    5.5920 N.3    38  THR38      -0.1218
     21  CA         6.8280    0.0570    5.4380 C.3    38  THR38       0.1862
     22  C          7.2110    0.9690    6.5940 C.2    38  THR38       0.2287
     23  O          6.7390    0.8050    7.7190 O.2    38  THR38      -0.2866
     24  CB         5.3660    0.2860    5.1360 C.3    38  THR38       0.1770
     25  OG1        4.5850   -0.2400    6.2160 O.3    38  THR38      -0.2211
     26  CG2        4.9830   -0.4380    3.8530 C.3    38  THR38       0.0375
     27  N          6.6450    4.3520    7.9050 N.3    40  PHE40      -0.1241
     28  CA         5.7390    5.4850    7.7950 C.3    40  PHE40       0.1605
     29  C          6.4830    6.8110    7.8870 C.2    40  PHE40       0.2264
     30  O          7.4850    6.9140    8.5860 O.2    40  PHE40      -0.2867
     31  CB         4.6750    5.4230    8.9010 C.3    40  PHE40       0.0534
     32  CG         3.4830    4.5350    8.5790 C.ar   40  PHE40      -0.0203
     33  CD1        3.6130    3.4290    7.7490 C.ar   40  PHE40      -0.0042
     34  CD2        2.2290    4.7900    9.1580 C.ar   40  PHE40      -0.0042
     35  CE1        2.5240    2.5870    7.5020 C.ar   40  PHE40      -0.0003
     36  CE2        1.1270    3.9500    8.9170 C.ar   40  PHE40      -0.0003
     37  CZ         1.2750    2.8490    8.0880 C.ar   40  PHE40      -0.0000
     38  N         -1.6540    7.6830    3.3720 N.3    54  PHE54      -0.1241
     39  CA        -0.4350    7.1260    3.9370 C.3    54  PHE54       0.1605
     40  C          0.7730    7.5330    3.1100 C.2    54  PHE54       0.2264
     41  O          0.7810    7.3830    1.8820 O.2    54  PHE54      -0.2867
     42  CB        -0.4980    5.5900    3.9460 C.3    54  PHE54       0.0534
     43  CG        -1.5440    5.0190    4.8590 C.ar   54  PHE54      -0.0203
     44  CD1       -1.2110    4.5950    6.1450 C.ar   54  PHE54      -0.0042
     45  CD2       -2.8670    4.9100    4.4350 C.ar   54  PHE54      -0.0042
     46  CE1       -2.1770    4.0630    7.0060 C.ar   54  PHE54      -0.0003
     47  CE2       -3.8490    4.3800    5.2890 C.ar   54  PHE54      -0.0003
     48  CZ        -3.4990    3.9560    6.5800 C.ar   54  PHE54      -0.0000
     49  N          4.7690    6.7520    3.0190 N.3    56  PHE56      -0.1241
     50  CA         5.7780    5.8960    3.6120 C.3    56  PHE56       0.1605
     51  C          6.8530    5.4370    2.6350 C.2    56  PHE56       0.2264
     52  O          6.6790    5.5010    1.4170 O.2    56  PHE56      -0.2867
     53  CB         5.1090    4.6720    4.2580 C.3    56  PHE56       0.0534
     54  CG         4.3060    3.8220    3.2980 C.ar   56  PHE56      -0.0203
     55  CD1        2.9570    4.0920    3.0570 C.ar   56  PHE56      -0.0042
     56  CD2        4.8870    2.7230    2.6650 C.ar   56  PHE56      -0.0042
     57  CE1        2.2040    3.2800    2.1970 C.ar   56  PHE56      -0.0003
     58  CE2        4.1380    1.9070    1.8030 C.ar   56  PHE56      -0.0003
     59  CZ         2.7960    2.1840    1.5730 C.ar   56  PHE56      -0.0000
     60  N         -0.4750    6.1720   -0.4490 N.3    69  VAL69      -0.1245
     61  CA        -1.6800    5.3570   -0.5830 C.3    69  VAL69       0.1561
     62  C         -2.8810    6.0270    0.0890 C.2    69  VAL69       0.2260
     63  O         -2.7800    6.5140    1.2180 O.2    69  VAL69      -0.2867
     64  CB        -1.4670    3.9430    0.0420 C.3    69  VAL69       0.0252
     65  CG1       -2.7670    3.1470    0.0030 C.3    69  VAL69       0.0019
     66  CG2       -0.3570    3.1940   -0.7080 C.3    69  VAL69       0.0019
     67  N         -8.0690   -0.0650    0.6710 N.3    81  ALA81      -0.1245
     68  CA        -7.0730    0.6330   -0.1290 C.3    81  ALA81       0.1562
     69  C         -6.2990   -0.3480   -0.9850 C.2    81  ALA81       0.2260
     70  O         -6.1340   -1.5120   -0.6180 O.2    81  ALA81      -0.2867
     71  CB        -6.1180    1.3970    0.7810 C.3    81  ALA81       0.0290
     72  N         -2.8870   -1.5810   -2.3820 N.3    83  TYR83      -0.1241
     73  CA        -1.4350   -1.5940   -2.1860 C.3    83  TYR83       0.1605
     74  C         -0.9800   -3.0560   -2.1350 C.2    83  TYR83       0.2264
     75  O         -1.3730   -3.8060   -1.2370 O.2    83  TYR83      -0.2867
     76  CB        -1.0190   -0.8900   -0.8900 C.3    83  TYR83       0.0534
     77  CG         0.4800   -0.9470   -0.6580 C.ar   83  TYR83      -0.0201
     78  CD1        1.3520   -0.1780   -1.4320 C.ar   83  TYR83      -0.0009
     79  CD2        1.0340   -1.8150    0.2930 C.ar   83  TYR83      -0.0009
     80  CE1        2.7400   -0.2700   -1.2790 C.ar   83  TYR83       0.0417
     81  CE2        2.4220   -1.9120    0.4570 C.ar   83  TYR83       0.0417
     82  CZ         3.2680   -1.1380   -0.3370 C.ar   83  TYR83       0.1957
     83  OH         4.6400   -1.2310   -0.2180 O.3    83  TYR83      -0.2866
     84  N         -6.6380   -4.3750    0.4310 N.3    87  ASN87      -0.1240
     85  CA        -6.5780   -4.3670    1.8850 C.3    87  ASN87       0.1653
     86  C         -7.8330   -3.8310    2.4980 C.2    87  ASN87       0.2266
     87  O         -8.4740   -2.9280    1.9670 O.2    87  ASN87      -0.2867
     88  CB        -5.4200   -3.5030    2.3920 C.3    87  ASN87       0.1155
     89  CG        -4.1510   -3.6940    1.5900 C.2    87  ASN87       0.2627
     90  OD1       -4.0540   -3.2440    0.4500 O.2    87  ASN87      -0.2716
     91  ND2       -3.1680   -4.3670    2.1840 N.am   87  ASN87      -0.0877
     92  N         -8.6220   -2.5100    6.1680 N.3    89  PHE89      -0.1241
     93  CA        -7.9530   -2.3510    7.4210 C.3    89  PHE89       0.1605
     94  C         -8.7810   -1.6860    8.4660 C.2    89  PHE89       0.2264
     95  O         -9.7610   -0.9850    8.1890 O.2    89  PHE89      -0.2867
     96  CB        -6.5900   -1.7040    7.2290 C.3    89  PHE89       0.0534
     97  CG        -6.5910   -0.2180    7.2100 C.ar   89  PHE89      -0.0203
     98  CD1       -6.0330    0.4550    6.1420 C.ar   89  PHE89      -0.0042
     99  CD2       -7.0480    0.5120    8.3000 C.ar   89  PHE89      -0.0042
    100  CE1       -5.8920    1.8260    6.1700 C.ar   89  PHE89      -0.0003
    101  CE2       -6.9150    1.8790    8.3400 C.ar   89  PHE89      -0.0003
    102  CZ        -6.3430    2.5420    7.2670 C.ar   89  PHE89      -0.0000
    103  N         -3.2530   -0.7870   14.4030 N.3   101  ALA101     -0.1245
    104  CA        -4.1860   -1.2470   13.3970 C.3   101  ALA101      0.1562
    105  C         -3.9790   -2.6930   13.0110 C.2   101  ALA101      0.2260
    106  O         -2.9290   -3.2830   13.2600 O.2   101  ALA101     -0.2867
    107  CB        -4.1000   -0.3650   12.1580 C.3   101  ALA101      0.0290
    108  N         -4.5470   -5.0490    9.6180 N.3   103  ASN103     -0.1240
    109  CA        -4.8280   -5.0060    8.2010 C.3   103  ASN103      0.1653
    110  C         -4.8960   -6.4130    7.6520 C.2   103  ASN103      0.2266
    111  O         -4.1210   -7.2890    8.0450 O.2   103  ASN103     -0.2867
    112  CB        -3.7410   -4.2480    7.4410 C.3   103  ASN103      0.1155
    113  CG        -4.0530   -4.1190    5.9550 C.2   103  ASN103      0.2627
    114  OD1       -3.1950   -4.3400    5.1050 O.2   103  ASN103     -0.2716
    115  ND2       -5.2810   -3.7500    5.6410 N.am  103  ASN103     -0.0877
    116  N         -2.0680   -8.5550    9.1970 N.3   115  LEU115     -0.1245
    117  CA        -0.9460   -7.8530    9.7900 C.3   115  LEU115      0.1561
    118  C         -1.3930   -7.0000   10.9570 C.2   115  LEU115      0.2260
    119  O         -2.5460   -6.5770   11.0180 O.2   115  LEU115     -0.2867
    120  CB        -0.2710   -6.9600    8.7490 C.3   115  LEU115      0.0270
    121  CG         0.3220   -7.6870    7.5400 C.3   115  LEU115      0.0019
    122  CD1       -0.4890   -7.3800    6.2790 C.3   115  LEU115      0.0001
    123  CD2        1.7690   -7.2570    7.3710 C.3   115  LEU115      0.0001
    124  N          0.0120   -3.6870   13.6110 N.3   117  GLU117     -0.1245
    125  CA         1.0060   -2.6410   13.6410 C.3   117  GLU117      0.1567
    126  C          0.7650   -1.5800   14.6840 C.2   117  GLU117      0.2260
    127  O         -0.3740   -1.2320   15.0160 O.2   117  GLU117     -0.2867
    128  CB         1.1260   -1.9110   12.2710 C.3   117  GLU117      0.0388
    129  CG         0.4930   -2.5510   11.0210 C.3   117  GLU117      0.1160
    130  CD        -1.0430   -2.4830   10.9480 C.2   117  GLU117      0.3649
    131  OE1       -1.6100   -1.4030   11.1900 O.co2 117  GLU117     -0.2457
    132  OE2       -1.6660   -3.5170   10.6400 O.co2 117  GLU117     -0.2457
    133  N          2.0740    2.2610   15.4510 N.3   119  PHE119     -0.1241
    134  CA         2.6880    3.4500   14.8460 C.3   119  PHE119      0.1605
    135  C          2.5570    4.5920   15.8430 C.2   119  PHE119      0.2264
    136  O          1.5650    4.6670   16.5600 O.2   119  PHE119     -0.2867
    137  CB         1.9750    3.8480   13.5510 C.3   119  PHE119      0.0534
    138  CG         1.8750    2.7320   12.5550 C.ar  119  PHE119     -0.0203
    139  CD1        0.7540    1.9080   12.5230 C.ar  119  PHE119     -0.0042
    140  CD2        2.9120    2.5000   11.6500 C.ar  119  PHE119     -0.0042
    141  CE1        0.6670    0.8520   11.5980 C.ar  119  PHE119     -0.0003
    142  CE2        2.8410    1.4530   10.7230 C.ar  119  PHE119     -0.0003
    143  CZ         1.7100    0.6280   10.6940 C.ar  119  PHE119     -0.0000
@<TRIPOS>BOND
     1    72    73    1
     2    73    74    1
     3    73    76    1
     4    74    75    2
     5    78    80   ar
     6    78    77   ar
     7    80    82   ar
     8    69    70    2
     9    69    68    1
    10    76    77    1
    11    66    64    1
    12    77    79   ar
    13    61    60    1
    14    61    64    1
    15    61    62    1
    16    82    83    1
    17    82    81   ar
    18    68    67    1
    19    68    71    1
    20    65    64    1
    21    62    63    2
    22    79    81   ar
    23    84    85    1
    24    90    89    2
    25    52    51    2
    26    59    58   ar
    27    59    57   ar
    28    89    91   am
    29    89    88    1
    30    17    19   ar
    31    17    15   ar
    32    58    56   ar
    33    41    40    2
    34    85    88    1
    35    85    86    1
    36    87    86    2
    37    19    18   ar
    38    57    55   ar
    39    15    14   ar
    40    51    50    1
    41    56    54   ar
    42     9    10    1
    43    49    50    1
    44    55    54   ar
    45    18    16   ar
    46    40    39    1
    47    54    53    1
    48    38    39    1
    49    14    16   ar
    50    14    13    1
    51    50    53    1
    52    10    13    1
    53    10    11    1
    54    26    24    1
    55    39    42    1
    56    42    43    1
    57    45    43   ar
    58    45    47   ar
    59    43    44   ar
    60    11    12    2
    61   114   113    2
    62    24    21    1
    63    24    25    1
    64    47    48   ar
    65    21    20    1
    66    21    22    1
    67   115   113   am
    68   113   112    1
    69    98   100   ar
    70    98    97   ar
    71    44    46   ar
    72    92    93    1
    73   100   102   ar
    74   122   121    1
    75    48    46   ar
    76    22    23    2
    77    97    96    1
    78    97    99   ar
    79    96    93    1
    80   102   101   ar
    81   123   121    1
    82    93    94    1
    83   112   109    1
    84    35    33   ar
    85    35    37   ar
    86   121   120    1
    87   110   111    2
    88   110   109    1
    89    33    32   ar
    90    28    29    1
    91    28    27    1
    92    28    31    1
    93    29    30    2
    94    37    36   ar
    95    95    94    2
    96   109   108    1
    97    99   101   ar
    98    32    31    1
    99    32    34   ar
   100   120   117    1
   101    36    34   ar
   102   116   117    1
   103     8     6    1
   104   117   118    1
   105     7     5    1
   106   132   130   ar
   107     6     5    1
   108   143   142   ar
   109   143   141   ar
   110   142   140   ar
   111     5     2    1
   112   130   129    1
   113   130   131   ar
   114   118   119    2
   115   129   128    1
   116   141   139   ar
   117   140   138   ar
   118   107   104    1
   119     4     3    2
   120   128   125    1
   121     2     3    1
   122     2     1    1
   123   139   138   ar
   124   138   137    1
   125   105   106    2
   126   105   104    1
   127   104   103    1
   128   137   134    1
   129   124   125    1
   130   125   126    1
   131   126   127    2
   132   134   133    1
   133   134   135    1
   134   135   136    2
