@<TRIPOS>MOLECULE
tmp/1gt5B00.pdb
 150 142 0 0 0
SMALL
GASTEIGER

@<TRIPOS>ATOM
      1  N         17.4660   22.7150   13.3930 N.3    20  ILE20      -0.1245
      2  CA        18.8000   23.1140   13.8280 C.3    20  ILE20       0.1561
      3  C         19.0970   24.4330   13.1220 C.2    20  ILE20       0.2260
      4  O         18.9280   24.5420   11.9060 O.2    20  ILE20      -0.2867
      5  CB        19.9190   22.0950   13.4740 C.3    20  ILE20       0.0252
      6  CG1       19.7780   20.8320   14.3280 C.3    20  ILE20       0.0019
      7  CG2       21.2990   22.7220   13.7600 C.3    20  ILE20       0.0019
      8  CD1       20.9240   19.8400   14.1590 C.3    20  ILE20       0.0001
      9  N         27.3280   19.6220   11.2290 N.3    34  PHE34      -0.1241
     10  CA        26.2260   19.7550   12.1750 C.3    34  PHE34       0.1605
     11  C         24.8310   19.5610   11.5960 C.2    34  PHE34       0.2264
     12  O         23.8460   20.0100   12.1760 O.2    34  PHE34      -0.2867
     13  CB        26.3140   21.0880   12.9420 C.3    34  PHE34       0.0534
     14  CG        27.4170   21.1210   13.9730 C.ar   34  PHE34      -0.0203
     15  CD1       28.6920   21.5940   13.6480 C.ar   34  PHE34      -0.0042
     16  CD2       27.1950   20.6400   15.2600 C.ar   34  PHE34      -0.0042
     17  CE1       29.7280   21.5840   14.5930 C.ar   34  PHE34      -0.0003
     18  CE2       28.2220   20.6240   16.2140 C.ar   34  PHE34      -0.0003
     19  CZ        29.4850   21.0960   15.8790 C.ar   34  PHE34      -0.0000
     20  N         22.9980   17.1450   11.7390 N.3    36  THR36      -0.1218
     21  CA        22.8680   15.8960   12.4840 C.3    36  THR36       0.1862
     22  C         21.4700   15.3350   12.6960 C.2    36  THR36       0.2287
     23  O         20.5950   16.0120   13.2180 O.2    36  THR36      -0.2866
     24  CB        23.5310   16.0530   13.8720 C.3    36  THR36       0.1770
     25  OG1       22.8370   17.0590   14.6250 O.3    36  THR36      -0.2211
     26  CG2       24.9740   16.4750   13.7120 C.3    36  THR36       0.0375
     27  N         19.5060   12.9880   14.8380 N.3    38  PHE38      -0.1241
     28  CA        19.6150   12.2650   16.1000 C.3    38  PHE38       0.1605
     29  C         18.9510   10.8970   16.1000 C.2    38  PHE38       0.2264
     30  O         17.9410   10.6950   15.4370 O.2    38  PHE38      -0.2867
     31  CB        19.0620   13.1100   17.2530 C.3    38  PHE38       0.0534
     32  CG        20.0550   14.0950   17.8150 C.ar   38  PHE38      -0.0203
     33  CD1       19.9490   14.5330   19.1260 C.ar   38  PHE38      -0.0042
     34  CD2       21.0950   14.5860   17.0390 C.ar   38  PHE38      -0.0042
     35  CE1       20.8690   15.4460   19.6540 C.ar   38  PHE38      -0.0003
     36  CE2       22.0180   15.4980   17.5570 C.ar   38  PHE38      -0.0003
     37  CZ        21.9060   15.9270   18.8610 C.ar   38  PHE38      -0.0000
     38  N         25.4380   11.0820   23.0200 N.3    52  PHE52      -0.1241
     39  CA        24.7350   11.4360   21.7830 C.3    52  PHE52       0.1605
     40  C         24.9520   10.3810   20.6930 C.2    52  PHE52       0.2264
     41  O         26.0900    9.9780   20.4290 O.2    52  PHE52      -0.2867
     42  CB        25.2640   12.7660   21.2420 C.3    52  PHE52       0.0534
     43  CG        24.7560   13.9730   21.9600 C.ar   52  PHE52      -0.0203
     44  CD1       23.5850   14.5900   21.5530 C.ar   52  PHE52      -0.0042
     45  CD2       25.4570   14.5170   23.0240 C.ar   52  PHE52      -0.0042
     46  CE1       23.1160   15.7360   22.1960 C.ar   52  PHE52      -0.0003
     47  CE2       24.9910   15.6710   23.6770 C.ar   52  PHE52      -0.0003
     48  CZ        23.8220   16.2760   23.2590 C.ar   52  PHE52      -0.0000
     49  N         23.9740    9.9550   16.7370 N.3    54  PHE54      -0.1241
     50  CA        23.3800   10.5690   15.5580 C.3    54  PHE54       0.1605
     51  C         24.0740   10.1440   14.2650 C.2    54  PHE54       0.2264
     52  O         25.0970    9.4570   14.2900 O.2    54  PHE54      -0.2867
     53  CB        23.4150   12.1020   15.6830 C.3    54  PHE54       0.0534
     54  CG        24.8010   12.6770   15.8780 C.ar   54  PHE54      -0.0203
     55  CD1       25.3350   12.8300   17.1490 C.ar   54  PHE54      -0.0042
     56  CD2       25.5720   13.0560   14.7870 C.ar   54  PHE54      -0.0042
     57  CE1       26.6200   13.3520   17.3340 C.ar   54  PHE54      -0.0003
     58  CE2       26.8550   13.5780   14.9580 C.ar   54  PHE54      -0.0003
     59  CZ        27.3790   13.7260   16.2340 C.ar   54  PHE54      -0.0000
     60  N         29.0070   10.7100   20.5510 N.3    67  VAL67      -0.1245
     61  CA        29.7020   11.7690   21.2720 C.3    67  VAL67       0.1561
     62  C         29.2550   11.7770   22.7400 C.2    67  VAL67       0.2260
     63  O         28.0620   11.7220   23.0460 O.2    67  VAL67      -0.2867
     64  CB        29.4340   13.1480   20.6390 C.3    67  VAL67       0.0252
     65  CG1       30.0180   14.2430   21.5110 C.3    67  VAL67       0.0019
     66  CG2       30.0580   13.2040   19.2530 C.3    67  VAL67       0.0019
     67  N         31.9240   18.9050   25.0380 N.3    79  ALA79      -0.1245
     68  CA        32.0250   17.7610   24.1520 C.3    79  ALA79       0.1562
     69  C         33.0050   18.0260   23.0290 C.2    79  ALA79       0.2260
     70  O         33.1080   19.1440   22.5200 O.2    79  ALA79      -0.2867
     71  CB        30.6490   17.4200   23.5750 C.3    79  ALA79       0.0290
     72  N         33.8330   17.3710   19.3390 N.3    81  TYR81      -0.1241
     73  CA        33.2490   16.9660   18.0730 C.3    81  TYR81       0.1605
     74  C         33.4890   18.1100   17.1000 C.2    81  TYR81       0.2264
     75  O         32.9500   19.2030   17.2800 O.2    81  TYR81      -0.2867
     76  CB        31.7500   16.7060   18.2090 C.3    81  TYR81       0.0534
     77  CG        31.0930   16.4460   16.8740 C.ar   81  TYR81      -0.0201
     78  CD1       31.3600   15.2810   16.1570 C.ar   81  TYR81      -0.0009
     79  CD2       30.2420   17.3920   16.3040 C.ar   81  TYR81      -0.0009
     80  CE1       30.7990   15.0640   14.9010 C.ar   81  TYR81       0.0417
     81  CE2       29.6760   17.1870   15.0460 C.ar   81  TYR81       0.0417
     82  CZ        29.9600   16.0170   14.3470 C.ar   81  TYR81       0.1957
     83  OH        29.4120   15.8160   13.0920 O.3    81  TYR81      -0.2866
     84  N         33.1210   21.9930   21.9720 N.3    85  ASN85      -0.1240
     85  CA        31.7400   22.4550   22.0700 C.3    85  ASN85       0.1653
     86  C         31.3200   22.6790   23.5120 C.2    85  ASN85       0.2266
     87  O         31.7160   21.9270   24.3960 O.2    85  ASN85      -0.2867
     88  CB        30.7880   21.4030   21.4600 C.3    85  ASN85       0.1155
     89  CG        31.1250   21.0650   20.0140 C.2    85  ASN85       0.2627
     90  OD1       30.7280   21.7720   19.0860 O.2    85  ASN85      -0.2716
     91  ND2       31.8770   19.9850   19.8200 N.am   85  ASN85      -0.0877
     92  N         27.8230   22.9520   25.2780 N.3    87  PHE87      -0.1241
     93  CA        26.4140   22.6630   25.0800 C.3    87  PHE87       0.1605
     94  C         25.5730   23.1060   26.2800 C.2    87  PHE87       0.2264
     95  O         25.9050   22.8200   27.4270 O.2    87  PHE87      -0.2867
     96  CB        26.3240   21.1450   24.8030 C.3    87  PHE87       0.0534
     97  CG        24.9350   20.6050   24.6360 C.ar   87  PHE87      -0.0203
     98  CD1       24.2000   20.1850   25.7380 C.ar   87  PHE87      -0.0042
     99  CD2       24.3940   20.4280   23.3640 C.ar   87  PHE87      -0.0042
    100  CE1       22.9500   19.5890   25.5790 C.ar   87  PHE87      -0.0003
    101  CE2       23.1400   19.8340   23.1910 C.ar   87  PHE87      -0.0003
    102  CZ        22.4180   19.4110   24.3010 C.ar   87  PHE87      -0.0000
    103  N         18.2240   23.2140   22.7940 N.3    99  ALA99      -0.1245
    104  CA        19.5800   23.4610   23.2470 C.3    99  ALA99       0.1562
    105  C         20.3420   24.5040   22.4570 C.2    99  ALA99       0.2260
    106  O         20.0200   24.8010   21.3170 O.2    99  ALA99      -0.2867
    107  CB        20.3620   22.1470   23.2560 C.3    99  ALA99       0.0290
    108  N         24.3290   25.4630   21.3990 N.3   101  ASN101     -0.1240
    109  CA        25.6840   24.9340   21.3460 C.3   101  ASN101      0.1653
    110  C         26.6210   25.9560   20.7310 C.2   101  ASN101      0.2266
    111  O         26.2960   26.6040   19.7390 O.2   101  ASN101     -0.2867
    112  CB        25.7210   23.6410   20.5140 C.3   101  ASN101      0.1155
    113  CG        27.1200   23.0060   20.4380 C.2   101  ASN101      0.2627
    114  OD1       27.7530   22.9980   19.3850 O.2   101  ASN101     -0.2716
    115  ND2       27.5910   22.4650   21.5490 N.am  101  ASN101     -0.0877
    116  N         25.0110   27.4440   17.4180 N.3   113  LEU113     -0.1231
    117  CA        23.8750   26.6770   16.9340 C.3   113  LEU113      0.1693
    118  C         22.7370   26.5260   17.9320 C.2   113  LEU113      0.2593
    119  O         22.9470   26.5600   19.1390 O.2   113  LEU113     -0.2718
    120  CB        24.3550   25.2880   16.5010 C.3   113  LEU113      0.0284
    121  CG        25.5010   25.2990   15.4840 C.3   113  LEU113      0.0019
    122  CD1       26.7760   24.8340   16.1550 C.3   113  LEU113      0.0001
    123  CD2       25.1560   24.4090   14.2990 C.3   113  LEU113      0.0001
    124  N         21.5220   26.4020   17.4130 N.am  114  THR114     -0.1939
    125  CA        20.3540   26.1920   18.2520 C.3   114  THR114      0.2028
    126  C         19.6720   24.9610   17.6850 C.2   114  THR114      0.2642
    127  O         19.7900   24.6810   16.4940 O.2   114  THR114     -0.2714
    128  CB        19.3590   27.3700   18.2040 C.3   114  THR114      0.1808
    129  OG1       18.8660   27.5250   16.8680 O.3   114  THR114     -0.2208
    130  CG2       20.0230   28.6520   18.6750 C.3   114  THR114      0.0379
    131  N         18.9630   24.2270   18.5320 N.am  115  GLU115     -0.1976
    132  CA        18.2820   23.0390   18.0630 C.3   115  GLU115      0.1602
    133  C         17.0470   22.6620   18.8460 C.2   115  GLU115      0.2287
    134  O         16.9110   22.9740   20.0290 O.2   115  GLU115     -0.2864
    135  CB        19.2130   21.7920   18.0700 C.3   115  GLU115      0.0415
    136  CG        20.6140   21.9850   17.4280 C.3   115  GLU115      0.1163
    137  CD        21.7110   22.6380   18.3480 C.2   115  GLU115      0.3649
    138  OE1       21.4530   22.9920   19.5370 O.co2 115  GLU115     -0.2457
    139  OE2       22.8600   22.7820   17.8400 O.co2 115  GLU115     -0.2457
    140  N         14.8050   19.2250   19.5100 N.3   117  PHE117     -0.1241
    141  CA        14.7490   17.7760   19.3450 C.3   117  PHE117      0.1605
    142  C         13.5130   17.2800   20.0540 C.2   117  PHE117      0.2264
    143  O         13.0320   17.9140   20.9870 O.2   117  PHE117     -0.2867
    144  CB        15.9930   17.1150   19.9410 C.3   117  PHE117      0.0534
    145  CG        17.2720   17.6920   19.4320 C.ar  117  PHE117     -0.0203
    146  CD1       17.8100   18.8290   20.0100 C.ar  117  PHE117     -0.0042
    147  CD2       17.9190   17.1320   18.3400 C.ar  117  PHE117     -0.0042
    148  CE1       18.9800   19.4010   19.5010 C.ar  117  PHE117     -0.0003
    149  CE2       19.0880   17.6980   17.8250 C.ar  117  PHE117     -0.0003
    150  CZ        19.6150   18.8280   18.4030 C.ar  117  PHE117     -0.0000
@<TRIPOS>BOND
     1     9    10    1
     2    11    10    1
     3    11    12    2
     4    20    21    1
     5     4     3    2
     6    10    13    1
     7    21    22    1
     8    21    24    1
     9    22    23    2
    10    13    14    1
    11    83    82    1
    12     3     2    1
    13     1     2    1
    14     5     7    1
    15     5     2    1
    16     5     6    1
    17    15    14   ar
    18    15    17   ar
    19    26    24    1
    20    24    25    1
    21    14    16   ar
    22     8     6    1
    23    51    52    2
    24    51    50    1
    25   123   121    1
    26    82    80   ar
    27    82    81   ar
    28    17    19   ar
    29    56    58   ar
    30    56    54   ar
    31    27    28    1
    32    80    78   ar
    33    58    59   ar
    34    81    79   ar
    35    16    18   ar
    36    30    29    2
    37   121   122    1
    38   121   120    1
    39    50    53    1
    40    50    49    1
    41    53    54    1
    42    54    55   ar
    43    19    18   ar
    44    28    29    1
    45    28    31    1
    46    78    77   ar
    47    59    57   ar
    48    79    77   ar
    49   127   126    2
    50   120   117    1
    51   129   128    1
    52    77    76    1
    53   117   116    1
    54   117   118    1
    55    34    36   ar
    56    34    32   ar
    57    74    75    2
    58    74    73    1
    59    55    57   ar
    60    31    32    1
    61   124   118   am
    62   124   125    1
    63   136   135    1
    64   136   137    1
    65    36    37   ar
    66   126   125    1
    67   126   131   am
    68    32    33   ar
    69   149   147   ar
    70   149   150   ar
    71   139   137   ar
    72   118   119    2
    73   132   135    1
    74   132   131    1
    75   132   133    1
    76    73    76    1
    77    73    72    1
    78   128   125    1
    79   128   130    1
    80   147   145   ar
    81   137   138   ar
    82   150   148   ar
    83   133   134    2
    84    37    35   ar
    85    90    89    2
    86    33    35   ar
    87    66    64    1
    88   141   140    1
    89   141   144    1
    90   141   142    1
    91   114   113    2
    92   145   144    1
    93   145   146   ar
    94   148   146   ar
    95   111   110    2
    96    91    89   am
    97    89    88    1
    98   142   143    2
    99    41    40    2
   100   113   112    1
   101   113   115   am
   102   112   109    1
   103    60    61    1
   104    64    61    1
   105    64    65    1
   106    40    39    1
   107   110   109    1
   108    42    39    1
   109    42    43    1
   110    61    62    1
   111   106   105    2
   112   109   108    1
   113    88    85    1
   114    44    43   ar
   115    44    46   ar
   116    39    38    1
   117    43    45   ar
   118    84    85    1
   119    85    86    1
   120    46    48   ar
   121   105   104    1
   122    70    69    2
   123    62    63    2
   124   103   104    1
   125    45    47   ar
   126    69    68    1
   127   101    99   ar
   128   101   102   ar
   129   104   107    1
   130    48    47   ar
   131    99    97   ar
   132    86    87    2
   133    71    68    1
   134    68    67    1
   135   102   100   ar
   136    97    96    1
   137    97    98   ar
   138    96    93    1
   139    93    92    1
   140    93    94    1
   141   100    98   ar
   142    94    95    2
