@<TRIPOS>MOLECULE
tmp/1gt6B00.pdb
 174 170 0 0 0
SMALL
GASTEIGER

@<TRIPOS>ATOM
      1  N         54.6150   17.8330   21.3490 N.3    21  TYR21      -0.1241
      2  CA        55.1550   16.4710   21.3260 C.3    21  TYR21       0.1605
      3  C         56.2390   16.2610   20.2590 C.2    21  TYR21       0.2264
      4  O         57.1760   15.4780   20.4720 O.2    21  TYR21      -0.2867
      5  CB        54.0500   15.4160   21.1750 C.3    21  TYR21       0.0534
      6  CG        53.2450   15.1600   22.4200 C.ar   21  TYR21      -0.0201
      7  CD1       53.5650   14.1130   23.2840 C.ar   21  TYR21      -0.0009
      8  CD2       52.1530   15.9600   22.7350 C.ar   21  TYR21      -0.0009
      9  CE1       52.8280   13.8780   24.4260 C.ar   21  TYR21       0.0417
     10  CE2       51.4110   15.7330   23.8610 C.ar   21  TYR21       0.0417
     11  CZ        51.7420   14.6960   24.7080 C.ar   21  TYR21       0.1957
     12  OH        50.9640   14.4850   25.8310 O.3    21  TYR21      -0.2866
     13  N         53.2620   16.6020   27.1710 N.3    82  GLY82      -0.1210
     14  CA        52.7920   15.5930   28.0980 C.3    82  GLY82       0.1956
     15  C         53.8420   14.5140   28.3100 C.2    82  GLY82       0.2612
     16  O         55.0030   14.6970   27.9610 O.2    82  GLY82      -0.2717
     17  N         53.4250   13.3820   28.8670 N.am   83  SER83      -0.1952
     18  CA        54.3370   12.2870   29.1800 C.3    83  SER83       0.1924
     19  C         54.8400   11.5680   27.9480 C.2    83  SER83       0.2314
     20  O         54.0550   11.1770   27.0900 O.2    83  SER83      -0.2863
     21  CB        53.6790   11.2690   30.1150 C.3    83  SER83       0.2116
     22  OG        53.3200   11.8520   31.3660 O.3    83  SER83      -0.2180
     23  N         57.1570    9.8980   33.6180 N.3    89  TRP89      -0.1241
     24  CA        56.3020    8.9540   34.3100 C.3    89  TRP89       0.1605
     25  C         56.6330    8.8140   35.7760 C.2    89  TRP89       0.2264
     26  O         55.7430    8.6890   36.6140 O.2    89  TRP89      -0.2867
     27  CB        56.2910    7.6060   33.5720 C.3    89  TRP89       0.0550
     28  CG        55.2770    7.6670   32.4870 C.ar   89  TRP89       0.0003
     29  CD1       55.4960    7.8520   31.1530 C.ar   89  TRP89       0.0946
     30  CD2       53.8640    7.6230   32.6580 C.ar   89  TRP89       0.0152
     31  NE1       54.2970    7.8960   30.4820 N.ar   89  TRP89      -0.2442
     32  CE2       53.2810    7.7490   31.3840 C.ar   89  TRP89       0.0810
     33  CE3       53.0260    7.4640   33.7650 C.ar   89  TRP89       0.0012
     34  CZ2       51.9160    7.7300   31.1900 C.ar   89  TRP89       0.0191
     35  CZ3       51.6790    7.4390   33.5720 C.ar   89  TRP89       0.0001
     36  CH2       51.1290    7.5710   32.2920 C.ar   89  TRP89       0.0015
     37  N         54.9870   11.7420   37.4110 N.3    92  ASN92      -0.1225
     38  CA        53.5460   11.5690   37.5240 C.3    92  ASN92       0.1785
     39  C         53.2130   10.7590   38.7610 C.2    92  ASN92       0.2597
     40  O         52.1800   10.9770   39.3900 O.2    92  ASN92      -0.2718
     41  CB        52.9900   10.8100   36.3130 C.3    92  ASN92       0.1169
     42  CG        53.0670   11.6090   35.0390 C.2    92  ASN92       0.2627
     43  OD1       53.0870   12.8280   35.0750 O.2    92  ASN92      -0.2716
     44  ND2       53.0880   10.9220   33.8980 N.am   92  ASN92      -0.0877
     45  N         54.0950    9.8190   39.1060 N.am   93  LEU93      -0.1980
     46  CA        53.8030    8.8870   40.1880 C.3    93  LEU93       0.1596
     47  C         54.1520    9.4320   41.5690 C.2    93  LEU93       0.2287
     48  O         54.0080    8.7540   42.5920 O.2    93  LEU93      -0.2864
     49  CB        54.4590    7.5280   39.9290 C.3    93  LEU93       0.0297
     50  CG        53.5830    6.4940   39.1920 C.3    93  LEU93       0.0022
     51  CD1       53.2040    6.9230   37.7760 C.3    93  LEU93       0.0001
     52  CD2       54.2530    5.1260   39.1710 C.3    93  LEU93       0.0001
     53  N         52.6690   11.4770   43.6080 N.3    95  PHE95      -0.1241
     54  CA        51.3580   12.0860   43.8230 C.3    95  PHE95       0.1605
     55  C         51.0250   12.5650   45.2390 C.2    95  PHE95       0.2264
     56  O         49.8850   12.9570   45.4990 O.2    95  PHE95      -0.2867
     57  CB        50.2400   11.1580   43.2950 C.3    95  PHE95       0.0534
     58  CG        50.2990    9.7640   43.8510 C.ar   95  PHE95      -0.0203
     59  CD1       50.8210    8.7290   43.1020 C.ar   95  PHE95      -0.0042
     60  CD2       49.8530    9.4980   45.1320 C.ar   95  PHE95      -0.0042
     61  CE1       50.8870    7.4480   43.6240 C.ar   95  PHE95      -0.0003
     62  CE2       49.9170    8.2280   45.6570 C.ar   95  PHE95      -0.0003
     63  CZ        50.4370    7.2010   44.9090 C.ar   95  PHE95      -0.0000
     64  N         50.0000   18.2010   43.5540 N.3   110  HIS110     -0.1241
     65  CA        50.7840   17.0480   43.1330 C.3   110  HIS110      0.1621
     66  C         52.2710   17.4050   43.2680 C.2   110  HIS110      0.2264
     67  O         52.7390   18.4020   42.7040 O.2   110  HIS110     -0.2867
     68  CB        50.4120   16.7100   41.6800 C.3   110  HIS110      0.0745
     69  CG        51.0110   15.4420   41.1630 C.ar  110  HIS110      0.0817
     70  ND1       52.2860   15.3770   40.6450 N.ar  110  HIS110     -0.2268
     71  CD2       50.4980   14.1930   41.0550 C.ar  110  HIS110      0.1154
     72  CE1       52.5380   14.1370   40.2590 C.ar  110  HIS110      0.1986
     73  NE2       51.4700   13.3990   40.5000 N.ar  110  HIS110     -0.2212
     74  N         54.1330   17.6350   39.8120 N.3   113  PHE113     -0.1241
     75  CA        53.6880   18.7310   38.9450 C.3   113  PHE113      0.1605
     76  C         54.2090   20.0660   39.4270 C.2   113  PHE113      0.2264
     77  O         54.7180   20.8630   38.6360 O.2   113  PHE113     -0.2867
     78  CB        52.1570   18.7970   38.8370 C.3   113  PHE113      0.0534
     79  CG        51.5170   17.5430   38.2860 C.ar  113  PHE113     -0.0203
     80  CD1       52.2550   16.6220   37.5600 C.ar  113  PHE113     -0.0042
     81  CD2       50.1630   17.3000   38.4920 C.ar  113  PHE113     -0.0042
     82  CE1       51.6610   15.4800   37.0560 C.ar  113  PHE113     -0.0003
     83  CE2       49.5650   16.1630   38.0010 C.ar  113  PHE113     -0.0003
     84  CZ        50.3130   15.2420   37.2810 C.ar  113  PHE113     -0.0000
     85  N         48.6090   19.1510   27.0200 N.3   145  HIS145     -0.1226
     86  CA        47.8410   17.9160   27.0280 C.3   145  HIS145      0.1752
     87  C         48.3660   17.0720   28.1630 C.2   145  HIS145      0.2596
     88  O         49.5740   16.9690   28.3430 O.2   145  HIS145     -0.2718
     89  CB        48.0270   17.1590   25.6970 C.3   145  HIS145      0.0759
     90  CG        47.4750   15.7610   25.7040 C.ar  145  HIS145      0.0818
     91  ND1       48.2620   14.6440   25.5050 N.ar  145  HIS145     -0.2268
     92  CD2       46.2100   15.3030   25.8790 C.ar  145  HIS145      0.1154
     93  CE1       47.5060   13.5610   25.5570 C.ar  145  HIS145      0.1986
     94  NE2       46.2550   13.9340   25.7810 N.ar  145  HIS145     -0.2212
     95  N         47.4550   16.4920   28.9350 N.am  146  ALA146     -0.1966
     96  CA        47.8000   15.5730   30.0120 C.3   146  ALA146      0.1728
     97  C         48.6980   16.1880   31.0720 C.2   146  ALA146      0.2616
     98  O         48.3370   17.1550   31.7130 O.2   146  ALA146     -0.2715
     99  CB        48.4440   14.3320   29.4190 C.3   146  ALA146      0.0334
    100  N         49.8780   15.6220   31.2540 N.am  147  LEU147     -0.1977
    101  CA        50.8590   16.1940   32.1580 C.3   147  LEU147      0.1596
    102  C         51.0910   17.6740   31.8280 C.2   147  LEU147      0.2287
    103  O         51.2620   18.5060   32.7220 O.2   147  LEU147     -0.2864
    104  CB        52.1800   15.4250   32.0420 C.3   147  LEU147      0.0297
    105  CG        53.4420   16.1790   32.5090 C.3   147  LEU147      0.0022
    106  CD1       53.4260   16.4140   34.0020 C.3   147  LEU147      0.0001
    107  CD2       54.7070   15.4230   32.1240 C.3   147  LEU147      0.0001
    108  N         45.0580   15.6220   34.4190 N.3   174  PRO174     -0.2116
    109  CA        44.7720   14.9750   35.6950 C.3   174  PRO174      0.1372
    110  C         44.5160   16.0530   36.7470 C.2   174  PRO174      0.2244
    111  O         44.7520   17.2440   36.4950 O.2   174  PRO174     -0.2868
    112  CB        46.0910   14.2740   36.0060 C.3   174  PRO174      0.0268
    113  CG        47.1010   15.2140   35.3860 C.3   174  PRO174      0.0207
    114  CD        46.4820   15.5090   34.0590 C.3   174  PRO174      0.0892
    115  N         40.8660    8.1500   30.9030 N.3   202  ILE202     -0.1231
    116  CA        41.2970    7.8350   32.2600 C.3   202  ILE202      0.1692
    117  C         42.1010    8.9160   32.9570 C.2   202  ILE202      0.2591
    118  O         42.0830    9.0180   34.1800 O.2   202  ILE202     -0.2718
    119  CB        42.1270    6.5310   32.3220 C.3   202  ILE202      0.0266
    120  CG1       42.4010    6.1680   33.7880 C.3   202  ILE202      0.0019
    121  CG2       43.4480    6.6810   31.6010 C.3   202  ILE202      0.0020
    122  CD1       42.4820    4.7030   34.0170 C.3   202  ILE202      0.0001
    123  N         42.7830    9.7460   32.1930 N.am  203  VAL203     -0.1980
    124  CA        43.6940   10.6830   32.8210 C.3   203  VAL203      0.1595
    125  C         43.0650   11.7150   33.7720 C.2   203  VAL203      0.2287
    126  O         43.6030   11.9660   34.8430 O.2   203  VAL203     -0.2864
    127  CB        44.6290   11.3020   31.7900 C.3   203  VAL203      0.0276
    128  CG1       45.6850   12.1640   32.4800 C.3   203  VAL203      0.0022
    129  CG2       45.2890   10.1770   31.0420 C.3   203  VAL203      0.0022
    130  N         42.5830   10.7660   37.3280 N.3   206  LEU206     -0.1231
    131  CA        43.7580   10.5860   38.1730 C.3   206  LEU206      0.1678
    132  C         44.2650   11.9390   38.6970 C.2   206  LEU206      0.2434
    133  O         44.0000   12.9890   38.1040 O.2   206  LEU206     -0.2733
    134  CB        44.8630    9.8530   37.3960 C.3   206  LEU206      0.0284
    135  CG        44.5480    8.5070   36.7130 C.3   206  LEU206      0.0019
    136  CD1       45.6430    8.1310   35.7420 C.3   206  LEU206      0.0001
    137  CD2       44.3560    7.3800   37.7090 C.3   206  LEU206      0.0001
    138  N         44.8710   11.9430   39.8800 N.am  207  PRO207     -0.2729
    139  CA        44.8800   10.7860   40.7680 C.3   207  PRO207      0.1401
    140  C         43.4640   10.7250   41.3310 C.2   207  PRO207      0.2269
    141  O         42.7290   11.7060   41.2080 O.2   207  PRO207     -0.2865
    142  CB        45.8730   11.1910   41.8530 C.3   207  PRO207      0.0296
    143  CG        46.6310   12.2990   41.2690 C.3   207  PRO207      0.0237
    144  CD        45.6240   13.0710   40.4500 C.3   207  PRO207      0.0939
    145  N         41.8270    4.3040   27.6220 N.3   255  ILE255     -0.1245
    146  CA        43.0880    4.9520   27.3040 C.3   255  ILE255      0.1561
    147  C         43.1300    5.5840   25.8950 C.2   255  ILE255      0.2260
    148  O         43.5900    6.7090   25.7460 O.2   255  ILE255     -0.2867
    149  CB        44.2700    3.9990   27.5720 C.3   255  ILE255      0.0252
    150  CG1       44.5600    3.9440   29.0740 C.3   255  ILE255      0.0019
    151  CG2       45.5200    4.4280   26.7930 C.3   255  ILE255      0.0019
    152  CD1       45.7120    3.0160   29.4350 C.3   255  ILE255      0.0001
    153  N         42.2140    9.1420   25.5610 N.3   258  HIS258     -0.1226
    154  CA        43.1730   10.1360   26.0070 C.3   258  HIS258      0.1752
    155  C         43.9880   10.7230   24.8440 C.2   258  HIS258      0.2595
    156  O         44.5970   11.7800   24.9710 O.2   258  HIS258     -0.2718
    157  CB        44.1290    9.4740   26.9800 C.3   258  HIS258      0.0759
    158  CG        45.1920   10.3870   27.4860 C.ar  258  HIS258      0.0818
    159  ND1       44.9060   11.5690   28.1390 N.ar  258  HIS258     -0.2268
    160  CD2       46.5400   10.3030   27.4230 C.ar  258  HIS258      0.1154
    161  CE1       46.0400   12.1600   28.4740 C.ar  258  HIS258      0.1986
    162  NE2       47.0410   11.4110   28.0510 N.ar  258  HIS258     -0.2212
    163  N         43.9990   10.0130   23.7200 N.am  259  LEU259     -0.1980
    164  CA        44.7760   10.4060   22.5540 C.3   259  LEU259      0.1596
    165  C         43.9850   11.1190   21.4530 C.2   259  LEU259      0.2287
    166  O         44.5320   11.3680   20.3840 O.2   259  LEU259     -0.2864
    167  CB        45.4490    9.1730   21.9620 C.3   259  LEU259      0.0297
    168  CG        46.8710    8.8290   22.4130 C.3   259  LEU259      0.0022
    169  CD1       47.2020    9.3560   23.8100 C.3   259  LEU259      0.0001
    170  CD2       47.1320    7.3250   22.2900 C.3   259  LEU259      0.0001
    171  N         49.4450   13.6280   21.3120 N.3   266  GLY266     -0.1225
    172  CA        50.3980   12.7990   22.0180 C.3   266  GLY266      0.1811
    173  C         51.1180   11.8470   21.0690 C.2   266  GLY266      0.2280
    174  O         51.9310   11.0350   21.4940 O.2   266  GLY266     -0.2866
@<TRIPOS>BOND
     1     3     4    2
     2     3     2    1
     3   166   165    2
     4   173   174    2
     5   173   172    1
     6     5     2    1
     7     5     6    1
     8   171   172    1
     9     2     1    1
    10   165   164    1
    11   167   168    1
    12   167   164    1
    13   170   168    1
    14   168   169    1
    15     6     8   ar
    16     6     7   ar
    17   164   163    1
    18     8    10   ar
    19     7     9   ar
    20   163   155   am
    21    10    11   ar
    22     9    11   ar
    23    11    12    1
    24   155   156    2
    25   155   154    1
    26    91    93   ar
    27    91    90   ar
    28    93    94   ar
    29   153   154    1
    30    89    90    1
    31    89    86    1
    32    90    92   ar
    33   148   147    2
    34    94    92   ar
    35   147   146    1
    36   154   157    1
    37   151   149    1
    38   157   158    1
    39    85    86    1
    40    86    87    1
    41    20    19    2
    42    13    14    1
    43   146   149    1
    44   146   145    1
    45   160   158   ar
    46   160   162   ar
    47   158   159   ar
    48   149   150    1
    49    19    18    1
    50    16    15    2
    51   162   161   ar
    52    14    15    1
    53   159   161   ar
    54    87    88    2
    55    87    95   am
    56    15    17   am
    57    17    18    1
    58    95    96    1
    59   150   152    1
    60    18    21    1
    61    99    96    1
    62    96    97    1
    63    21    22    1
    64    31    29   ar
    65    31    32   ar
    66   115   116    1
    67   129   127    1
    68    97   100   am
    69    97    98    2
    70    29    28   ar
    71    34    32   ar
    72    34    36   ar
    73   100   101    1
    74    32    30   ar
    75   121   119    1
    76   127   128    1
    77   127   124    1
    78   102   101    1
    79   102   103    2
    80   104   101    1
    81   104   105    1
    82   107   105    1
    83   123   124    1
    84   123   117   am
    85   116   119    1
    86   116   117    1
    87    36    35   ar
    88   119   120    1
    89    28    30   ar
    90    28    27    1
    91   105   106    1
    92    30    33   ar
    93   124   125    1
    94   117   118    2
    95    27    24    1
    96    35    33   ar
    97    23    24    1
    98   125   126    2
    99   120   122    1
   100    44    42   am
   101   114   108    1
   102   114   113    1
   103    24    25    1
   104   108   109    1
   105    42    43    2
   106    42    41    1
   107   113   112    1
   108   109   112    1
   109   109   110    1
   110   136   135    1
   111    25    26    2
   112    41    38    1
   113   111   110    2
   114   135   134    1
   115   135   137    1
   116    82    84   ar
   117    82    80   ar
   118    84    83   ar
   119   130   131    1
   120   134   131    1
   121    37    38    1
   122    38    39    1
   123    80    79   ar
   124    51    50    1
   125    83    81   ar
   126   133   132    2
   127   131   132    1
   128    79    81   ar
   129    79    78    1
   130    77    76    2
   131   132   138   am
   132    39    45   am
   133    39    40    2
   134    78    75    1
   135    75    76    1
   136    75    74    1
   137    45    46    1
   138    52    50    1
   139    50    49    1
   140   138   144    1
   141   138   139    1
   142    49    46    1
   143    46    47    1
   144    72    73   ar
   145    72    70   ar
   146   144   143    1
   147    73    71   ar
   148    70    69   ar
   149   139   140    1
   150   139   142    1
   151    71    69   ar
   152    69    68    1
   153   141   140    2
   154   143   142    1
   155    47    48    2
   156    68    65    1
   157    67    66    2
   158    59    61   ar
   159    59    58   ar
   160    65    66    1
   161    65    64    1
   162    57    54    1
   163    57    58    1
   164    53    54    1
   165    61    63   ar
   166    54    55    1
   167    58    60   ar
   168    63    62   ar
   169    60    62   ar
   170    55    56    2
