@<TRIPOS>MOLECULE
tmp/1gtjB00.pdb
 159 154 0 0 0
SMALL
GASTEIGER

@<TRIPOS>ATOM
      1  N         -8.3580   13.8980    2.2450 N.3    33  LEU33      -0.1245
      2  CA        -7.5160   14.9440    2.8330 C.3    33  LEU33       0.1561
      3  C         -7.5870   16.2420    2.0180 C.2    33  LEU33       0.2260
      4  O         -6.7780   17.1530    2.2100 O.2    33  LEU33      -0.2867
      5  CB        -6.0550   14.4590    2.9090 C.3    33  LEU33       0.0270
      6  CG        -5.8770   13.0680    3.5430 C.3    33  LEU33       0.0019
      7  CD1       -4.4100   12.6560    3.4870 C.3    33  LEU33       0.0001
      8  CD2       -6.3660   13.0930    4.9980 C.3    33  LEU33       0.0001
      9  N         -8.1640   17.6780   -6.4870 N.3    75  PRO75      -0.2116
     10  CA        -8.5930   16.6270   -5.5560 C.3    75  PRO75       0.1372
     11  C        -10.0580   16.1980   -5.6640 C.2    75  PRO75       0.2244
     12  O        -10.3980   15.1180   -5.1960 O.2    75  PRO75      -0.2868
     13  CB        -8.2660   17.2190   -4.1830 C.3    75  PRO75       0.0268
     14  CG        -8.4100   18.7180   -4.4150 C.3    75  PRO75       0.0207
     15  CD        -7.7170   18.8780   -5.7510 C.3    75  PRO75       0.0892
     16  N        -10.2330   12.8890   -6.9310 N.3    78  GLU78      -0.1245
     17  CA       -10.0350   11.7690   -5.9940 C.3    78  GLU78       0.1567
     18  C        -11.3390   11.5050   -5.2320 C.2    78  GLU78       0.2260
     19  O        -11.8070   10.3680   -5.1190 O.2    78  GLU78      -0.2867
     20  CB        -8.9440   12.1100   -4.9570 C.3    78  GLU78       0.0388
     21  CG        -8.6680   10.9400   -3.9730 C.3    78  GLU78       0.1160
     22  CD        -8.1050    9.7090   -4.6840 C.2    78  GLU78       0.3649
     23  OE1       -6.8820    9.6940   -4.9610 O.co2  78  GLU78      -0.2457
     24  OE2       -8.8770    8.7630   -4.9730 O.co2  78  GLU78      -0.2457
     25  N         -4.8250   17.9530    5.5670 N.3   102  ASN102     -0.1240
     26  CA        -3.7750   17.1120    5.0180 C.3   102  ASN102      0.1653
     27  C         -2.4880   17.2760    5.8310 C.2   102  ASN102      0.2266
     28  O         -1.5580   17.9840    5.4280 O.2   102  ASN102     -0.2867
     29  CB        -3.4990   17.4380    3.5390 C.3   102  ASN102      0.1155
     30  CG        -2.6520   16.3590    2.8680 C.2   102  ASN102      0.2627
     31  OD1       -1.8880   15.6470    3.5390 O.2   102  ASN102     -0.2716
     32  ND2       -2.7760   16.2380    1.5470 N.am  102  ASN102     -0.0877
     33  N         -4.7040   12.8560    9.0070 N.3   107  PHE107     -0.1241
     34  CA        -4.8750   11.5580    8.3570 C.3   107  PHE107      0.1605
     35  C         -5.2040   10.5220    9.4420 C.2   107  PHE107      0.2264
     36  O         -6.1730    9.7680    9.3230 O.2   107  PHE107     -0.2867
     37  CB        -3.5770   11.2050    7.6020 C.3   107  PHE107      0.0534
     38  CG        -3.7420   10.1840    6.4960 C.ar  107  PHE107     -0.0203
     39  CD1       -2.6920    9.9660    5.6000 C.ar  107  PHE107     -0.0042
     40  CD2       -4.9010    9.4210    6.3670 C.ar  107  PHE107     -0.0042
     41  CE1       -2.7820    9.0010    4.5940 C.ar  107  PHE107     -0.0003
     42  CE2       -5.0060    8.4540    5.3640 C.ar  107  PHE107     -0.0003
     43  CZ        -3.9340    8.2430    4.4750 C.ar  107  PHE107     -0.0000
     44  N         -7.2990    6.2350   -0.4140 N.3   128  SER128     -0.1202
     45  CA        -6.6380    6.4130   -1.7080 C.3   128  SER128      0.2020
     46  C         -5.6310    7.5540   -1.6820 C.2   128  SER128      0.2619
     47  O         -5.3910    8.2070   -2.7080 O.2   128  SER128     -0.2717
     48  CB        -7.6820    6.6720   -2.7950 C.3   128  SER128      0.2103
     49  OG        -8.4960    5.5220   -3.0130 O.3   128  SER128     -0.2182
     50  N         -5.0690    7.7890   -0.4960 N.am  129  TRP129     -0.1961
     51  CA        -4.0550    8.8160   -0.2710 C.3   129  TRP129      0.1771
     52  C         -2.8820    8.1530    0.4530 C.2   129  TRP129      0.2620
     53  O         -3.0480    7.1500    1.1590 O.2   129  TRP129     -0.2715
     54  CB        -4.5990    9.9400    0.6350 C.3   129  TRP129      0.0590
     55  CG        -5.7540   10.7260    0.1110 C.ar  129  TRP129      0.0006
     56  CD1       -7.0670   10.3330    0.0430 C.ar  129  TRP129      0.0946
     57  CD2       -5.7100   12.0630   -0.3780 C.ar  129  TRP129      0.0152
     58  NE1       -7.8420   11.3490   -0.4660 N.ar  129  TRP129     -0.2442
     59  CE2       -7.0350   12.4230   -0.7320 C.ar  129  TRP129      0.0810
     60  CE3       -4.6820   12.9990   -0.5540 C.ar  129  TRP129      0.0012
     61  CZ2       -7.3550   13.6840   -1.2580 C.ar  129  TRP129      0.0191
     62  CZ3       -5.0090   14.2580   -1.0770 C.ar  129  TRP129      0.0001
     63  CH2       -6.3310   14.5770   -1.4210 C.ar  129  TRP129      0.0015
     64  N         -1.6870    8.6890    0.2970 N.am  130  GLY130     -0.1940
     65  CA        -0.5710    8.0920    1.0010 C.3   130  GLY130      0.2014
     66  C          0.7370    8.8070    0.7350 C.2   130  GLY130      0.2639
     67  O          0.7560    9.9670    0.2840 O.2   130  GLY130     -0.2714
     68  N          1.8280    8.1040    1.0130 N.am  131  GLY131     -0.1940
     69  CA         3.1600    8.6630    0.8190 C.3   131  GLY131      0.1998
     70  C          4.2200    7.6100    1.0920 C.2   131  GLY131      0.2480
     71  O          3.9190    6.5890    1.7340 O.2   131  GLY131     -0.2729
     72  N          5.4670    7.8100    0.6120 N.am  132  PRO132     -0.2726
     73  CA         6.5510    6.8390    0.8330 C.3   132  PRO132      0.1402
     74  C          6.6290    6.4980    2.3230 C.2   132  PRO132      0.2269
     75  O          6.6880    7.4040    3.1590 O.2   132  PRO132     -0.2865
     76  CB         7.7890    7.5830    0.3340 C.3   132  PRO132      0.0296
     77  CG         7.2360    8.3840   -0.8360 C.3   132  PRO132      0.0237
     78  CD         5.9220    8.9360   -0.2330 C.3   132  PRO132      0.0939
     79  N          7.5350    9.3990    6.0120 N.3   136  TRP136     -0.1241
     80  CA         6.6390    9.7710    7.1030 C.3   136  TRP136      0.1605
     81  C          7.4120    9.7490    8.4220 C.2   136  TRP136      0.2264
     82  O          8.3100    8.9240    8.5910 O.2   136  TRP136     -0.2867
     83  CB         5.4910    8.7600    7.2760 C.3   136  TRP136      0.0550
     84  CG         4.4370    8.6430    6.1860 C.ar  136  TRP136      0.0003
     85  CD1        4.5680    8.0360    4.9660 C.ar  136  TRP136      0.0946
     86  CD2        3.0680    9.0530    6.2820 C.ar  136  TRP136      0.0152
     87  NE1        3.3580    8.0350    4.3010 N.ar  136  TRP136     -0.2442
     88  CE2        2.4230    8.6530    5.0850 C.ar  136  TRP136      0.0810
     89  CE3        2.3220    9.7180    7.2670 C.ar  136  TRP136      0.0012
     90  CZ2        1.0700    8.8930    4.8470 C.ar  136  TRP136      0.0191
     91  CZ3        0.9780    9.9570    7.0330 C.ar  136  TRP136      0.0001
     92  CH2        0.3650    9.5430    5.8290 C.ar  136  TRP136      0.0015
     93  N         -4.8520    2.2090   -1.5800 N.3   161  ALA161     -0.1245
     94  CA        -4.1670    2.2560   -2.8820 C.3   161  ALA161      0.1562
     95  C         -2.6560    2.1690   -2.6080 C.2   161  ALA161      0.2260
     96  O         -2.1560    2.8190   -1.6980 O.2   161  ALA161     -0.2867
     97  CB        -4.4930    3.5980   -3.5690 C.3   161  ALA161      0.0290
     98  N         -0.1230    3.2330   -4.5100 N.3   163  GLY163     -0.1210
     99  CA         0.6970    4.3050   -5.0630 C.3   163  GLY163      0.1956
    100  C          0.6850    4.3210   -6.5880 C.2   163  GLY163      0.2612
    101  O          0.3830    3.3010   -7.1990 O.2   163  GLY163     -0.2717
    102  N          1.0450    5.4550   -7.2020 N.am  164  ASP164     -0.1959
    103  CA         0.9850    5.6080   -8.6710 C.3   164  ASP164      0.1840
    104  C          2.2980    5.9680   -9.3160 C.2   164  ASP164      0.2622
    105  O          2.3070    6.4390  -10.4580 O.2   164  ASP164     -0.2715
    106  CB         0.0010    6.7180   -9.0490 C.3   164  ASP164      0.1450
    107  CG        -1.4320    6.3730   -8.7120 C.2   164  ASP164      0.3671
    108  OD1       -2.2730    7.2880   -8.7730 O.co2 164  ASP164     -0.2456
    109  OD2       -1.7100    5.1840   -8.4180 O.co2 164  ASP164     -0.2456
    110  N          3.3840    5.7610   -8.5900 N.am  165  SER165     -0.1950
    111  CA         4.7020    6.1180   -9.0890 C.3   165  SER165      0.1924
    112  C          5.6800    4.9570   -9.0410 C.2   165  SER165      0.2314
    113  O          6.8670    5.1110   -8.6910 O.2   165  SER165     -0.2863
    114  CB         5.2350    7.2980   -8.2850 C.3   165  SER165      0.2116
    115  OG         4.3380    8.3840   -8.4120 O.3   165  SER165     -0.2180
    116  N          8.3010    4.9420   -5.8510 N.3   169  ASP169     -0.1239
    117  CA         7.2570    5.7550   -5.2230 C.3   169  ASP169      0.1674
    118  C          7.5220    7.2640   -5.2640 C.2   169  ASP169      0.2266
    119  O          7.2620    7.9770   -4.2940 O.2   169  ASP169     -0.2867
    120  CB         7.0260    5.3030   -3.7690 C.3   169  ASP169      0.1410
    121  CG         5.6280    5.6100   -3.2820 C.2   169  ASP169      0.3668
    122  OD1        5.4010    5.6630   -2.0530 O.co2 169  ASP169     -0.2456
    123  OD2        4.7440    5.7880   -4.1260 O.co2 169  ASP169     -0.2456
    124  N          4.7640    2.4680   -0.5370 N.3   179  ASP179     -0.1239
    125  CA         3.9020    3.4910    0.0490 C.3   179  ASP179      0.1674
    126  C          3.1450    3.0890    1.3080 C.2   179  ASP179      0.2266
    127  O          2.8320    1.9240    1.5020 O.2   179  ASP179     -0.2867
    128  CB         2.9020    3.9320   -1.0080 C.3   179  ASP179      0.1410
    129  CG         2.4470    5.3510   -0.8060 C.2   179  ASP179      0.3668
    130  OD1        1.3880    5.5550   -0.1810 O.co2 179  ASP179     -0.2456
    131  OD2        3.1650    6.2510   -1.2700 O.co2 179  ASP179     -0.2456
    132  N         -0.3010    4.3390    3.7100 N.3   181  PRO181     -0.2116
    133  CA        -0.6040    3.1230    4.4770 C.3   181  PRO181      0.1372
    134  C         -0.6040    1.7450    3.8500 C.2   181  PRO181      0.2244
    135  O         -0.7670    0.7570    4.5810 O.2   181  PRO181     -0.2868
    136  CB        -1.9500    3.4580    5.1110 C.3   181  PRO181      0.0268
    137  CG        -2.6110    4.2820    4.0490 C.3   181  PRO181      0.0207
    138  CD        -1.5140    5.1540    3.4990 C.3   181  PRO181      0.0892
    139  N         -7.7980    7.1200  -13.7130 N.3   275  GLY275     -0.1210
    140  CA        -7.2320    5.8500  -13.3000 C.3   275  GLY275      0.1956
    141  C         -6.4770    6.0280  -11.9870 C.2   275  GLY275      0.2612
    142  O         -6.8010    6.9040  -11.1680 O.2   275  GLY275     -0.2717
    143  N         -5.4670    5.1850  -11.8000 N.am  276  GLY276     -0.1942
    144  CA        -4.6450    5.2100  -10.6010 C.3   276  GLY276      0.2014
    145  C         -5.0620    4.1230   -9.6290 C.2   276  GLY276      0.2640
    146  O         -6.1900    3.6160   -9.7240 O.2   276  GLY276     -0.2714
    147  N         -4.1750    3.7610   -8.7010 N.am  277  THR277     -0.1936
    148  CA        -4.5160    2.7500   -7.7040 C.3   277  THR277      0.2028
    149  C         -5.6070    3.3410   -6.8100 C.2   277  THR277      0.2642
    150  O         -6.2630    2.6250   -6.0440 O.2   277  THR277     -0.2714
    151  CB        -3.2940    2.3370   -6.8500 C.3   277  THR277      0.1808
    152  OG1       -2.5990    3.5020   -6.3730 O.3   277  THR277     -0.2208
    153  CG2       -2.3460    1.4620   -7.6870 C.3   277  THR277      0.0379
    154  N         -5.7850    4.6570   -6.9100 N.am  278  SER278     -0.1949
    155  CA        -6.8480    5.3570   -6.1690 C.3   278  SER278      0.1924
    156  C         -8.2380    4.7480   -6.4350 C.2   278  SER278      0.2314
    157  O         -9.1230    4.8100   -5.5910 O.2   278  SER278     -0.2863
    158  CB        -6.9110    6.8320   -6.5810 C.3   278  SER278      0.2116
    159  OG        -5.8780    7.5960   -5.9430 O.3   278  SER278     -0.2180
@<TRIPOS>BOND
     1   139   140    1
     2   140   141    1
     3   141   143   am
     4   141   142    2
     5   143   144    1
     6   144   145    1
     7   105   104    2
     8   146   145    2
     9   145   147   am
    10   104   103    1
    11   104   110   am
    12   111   112    1
    13   111   110    1
    14   111   114    1
    15   106   107    1
    16   106   103    1
    17   112   113    2
    18   108   107   ar
    19   107   109   ar
    20   147   148    1
    21   103   102    1
    22   115   114    1
    23   148   151    1
    24   148   149    1
    25   153   151    1
    26   102   100   am
    27   101   100    2
    28    16    17    1
    29   154   149   am
    30   154   155    1
    31   151   152    1
    32   149   150    2
    33   100    99    1
    34   158   155    1
    35   158   159    1
    36     9    15    1
    37     9    10    1
    38   156   155    1
    39   156   157    2
    40    17    18    1
    41    17    20    1
    42   116   117    1
    43    15    14    1
    44    11    10    1
    45    11    12    2
    46    10    13    1
    47   118   117    1
    48   118   119    2
    49    18    19    2
    50   117   120    1
    51    99    98    1
    52    24    22   ar
    53    23    22   ar
    54    20    21    1
    55    22    21    1
    56    14    13    1
    57   123   121   ar
    58   120   121    1
    59    97    94    1
    60   121   122   ar
    61    49    48    1
    62    94    95    1
    63    94    93    1
    64    48    45    1
    65    47    46    2
    66    95    96    2
    67    45    46    1
    68    45    44    1
    69    46    50   am
    70    63    61   ar
    71    63    62   ar
    72   131   129   ar
    73    61    59   ar
    74    62    60   ar
    75   128   129    1
    76   128   125    1
    77    77    78    1
    78    77    76    1
    79   129   130   ar
    80    59    58   ar
    81    59    57   ar
    82    60    57   ar
    83   124   125    1
    84    50    51    1
    85    58    56   ar
    86    57    55   ar
    87    51    52    1
    88    51    54    1
    89    78    72    1
    90    56    55   ar
    91   125   126    1
    92    55    54    1
    93    67    66    2
    94    64    52   am
    95    64    65    1
    96    76    73    1
    97    52    53    2
    98    72    73    1
    99    72    70   am
   100    66    65    1
   101    66    68   am
   102    69    68    1
   103    69    70    1
   104    73    74    1
   105    70    71    2
   106   126   127    2
   107    32    30   am
   108     3     4    2
   109     3     2    1
   110     1     2    1
   111    74    75    2
   112     2     5    1
   113    30    29    1
   114    30    31    2
   115     5     6    1
   116     7     6    1
   117   138   132    1
   118   138   137    1
   119    29    26    1
   120     6     8    1
   121   132   133    1
   122   134   133    1
   123   134   135    2
   124   137   136    1
   125    87    85   ar
   126    87    88   ar
   127    43    41   ar
   128    43    42   ar
   129   133   136    1
   130    41    39   ar
   131    90    88   ar
   132    90    92   ar
   133    85    84   ar
   134    26    25    1
   135    26    27    1
   136    88    86   ar
   137    42    40   ar
   138    28    27    2
   139    39    38   ar
   140    92    91   ar
   141    79    80    1
   142    84    86   ar
   143    84    83    1
   144    86    89   ar
   145    40    38   ar
   146    38    37    1
   147    91    89   ar
   148    80    83    1
   149    80    81    1
   150    37    34    1
   151    34    33    1
   152    34    35    1
   153    81    82    2
   154    36    35    2
