@<TRIPOS>MOLECULE
tmp/1gtlB00.pdb
 164 158 0 0 0
SMALL
GASTEIGER

@<TRIPOS>ATOM
      1  N         -8.5420   14.1050    2.0820 N.3    33  LEU33      -0.1245
      2  CA        -7.6910   15.1430    2.6620 C.3    33  LEU33       0.1561
      3  C         -7.8300   16.5010    1.9950 C.2    33  LEU33       0.2260
      4  O         -7.4200   17.5030    2.5500 O.2    33  LEU33      -0.2867
      5  CB        -6.2280   14.7160    2.5820 C.3    33  LEU33       0.0270
      6  CG        -5.8790   13.3810    3.2230 C.3    33  LEU33       0.0019
      7  CD1       -4.4140   13.0930    2.9420 C.3    33  LEU33       0.0001
      8  CD2       -6.1820   13.4080    4.7200 C.3    33  LEU33       0.0001
      9  N         -8.1840   17.9830   -6.4860 N.3    75  PRO75      -0.2116
     10  CA        -8.4960   17.0110   -5.4380 C.3    75  PRO75       0.1372
     11  C         -9.9240   16.4470   -5.4710 C.2    75  PRO75       0.2244
     12  O        -10.1950   15.4220   -4.8380 O.2    75  PRO75      -0.2868
     13  CB        -8.1990   17.7890   -4.1500 C.3    75  PRO75       0.0268
     14  CG        -8.4280   19.1830   -4.5310 C.3    75  PRO75       0.0207
     15  CD        -7.7480   19.2500   -5.8790 C.3    75  PRO75       0.0892
     16  N        -10.4640   13.0620   -7.1450 N.3    78  GLU78      -0.1245
     17  CA       -10.1210   11.9430   -6.2750 C.3    78  GLU78       0.1567
     18  C        -11.2680   11.6670   -5.3270 C.2    78  GLU78       0.2260
     19  O        -11.5440   10.5190   -4.9950 O.2    78  GLU78      -0.2867
     20  CB        -8.8910   12.2520   -5.4320 C.3    78  GLU78       0.0388
     21  CG        -8.7440   11.3050   -4.2460 C.3    78  GLU78       0.1160
     22  CD        -8.2350    9.9430   -4.6490 C.2    78  GLU78       0.3649
     23  OE1       -7.0770    9.8580   -5.1250 O.co2  78  GLU78      -0.2457
     24  OE2       -8.9900    8.9570   -4.4910 O.co2  78  GLU78      -0.2457
     25  N        -14.1570   10.4330   -7.7500 N.3    81  LEU81      -0.1245
     26  CA       -13.8310    9.1320   -8.3290 C.3    81  LEU81       0.1561
     27  C        -14.1540    8.0720   -7.2620 C.2    81  LEU81       0.2260
     28  O        -14.7560    7.0420   -7.5530 O.2    81  LEU81      -0.2867
     29  CB       -12.3440    9.0640   -8.6580 C.3    81  LEU81       0.0270
     30  CG       -11.7030    7.6670   -8.6290 C.3    81  LEU81       0.0019
     31  CD1      -12.0910    6.8540   -9.9050 C.3    81  LEU81       0.0001
     32  CD2      -10.1780    7.8280   -8.5260 C.3    81  LEU81       0.0001
     33  N         -4.8050   18.0810    5.6160 N.3   102  ASN102     -0.1240
     34  CA        -3.8090   17.2260    5.0000 C.3   102  ASN102      0.1653
     35  C         -2.5360   17.3070    5.8160 C.2   102  ASN102      0.2266
     36  O         -1.5320   17.8560    5.3640 O.2   102  ASN102     -0.2867
     37  CB        -3.5440   17.6610    3.5600 C.3   102  ASN102      0.1155
     38  CG        -2.7000   16.6620    2.7900 C.2   102  ASN102      0.2627
     39  OD1       -1.7170   16.1310    3.3100 O.2   102  ASN102     -0.2716
     40  ND2       -3.0580   16.4250    1.5360 N.am  102  ASN102     -0.0877
     41  N         -4.7360   12.8740    9.0260 N.3   107  PHE107     -0.1241
     42  CA        -4.8610   11.5820    8.3870 C.3   107  PHE107      0.1605
     43  C         -5.1840   10.6440    9.5430 C.2   107  PHE107      0.2264
     44  O         -6.2700   10.0880    9.6250 O.2   107  PHE107     -0.2867
     45  CB        -3.5280   11.2280    7.7330 C.3   107  PHE107      0.0534
     46  CG        -3.6390   10.2770    6.5850 C.ar  107  PHE107     -0.0203
     47  CD1       -2.5530   10.0820    5.7400 C.ar  107  PHE107     -0.0042
     48  CD2       -4.8120    9.5630    6.3530 C.ar  107  PHE107     -0.0042
     49  CE1       -2.6270    9.1930    4.6780 C.ar  107  PHE107     -0.0003
     50  CE2       -4.8930    8.6690    5.2900 C.ar  107  PHE107     -0.0003
     51  CZ        -3.7910    8.4870    4.4500 C.ar  107  PHE107     -0.0000
     52  N         -7.2520    6.4190   -0.2050 N.3   128  SER128     -0.1202
     53  CA        -6.6470    6.5070   -1.5300 C.3   128  SER128      0.2020
     54  C         -5.6130    7.6170   -1.5500 C.2   128  SER128      0.2619
     55  O         -5.3540    8.2140   -2.5930 O.2   128  SER128     -0.2717
     56  CB        -7.6980    6.7790   -2.6120 C.3   128  SER128      0.2103
     57  OG        -8.6260    5.7160   -2.7390 O.3   128  SER128     -0.2182
     58  N         -5.0260    7.8810   -0.3850 N.am  129  TRP129     -0.1961
     59  CA        -3.9990    8.9130   -0.2160 C.3   129  TRP129      0.1771
     60  C         -2.7940    8.2580    0.4700 C.2   129  TRP129      0.2620
     61  O         -2.9320    7.2040    1.1140 O.2   129  TRP129     -0.2715
     62  CB        -4.5140   10.0360    0.6880 C.3   129  TRP129      0.0590
     63  CG        -5.7300   10.8100    0.2010 C.ar  129  TRP129      0.0006
     64  CD1       -7.0320   10.4010    0.2220 C.ar  129  TRP129      0.0946
     65  CD2       -5.7470   12.1440   -0.3230 C.ar  129  TRP129      0.0152
     66  NE1       -7.8580   11.3880   -0.2510 N.ar  129  TRP129     -0.2442
     67  CE2       -7.0980   12.4710   -0.5950 C.ar  129  TRP129      0.0810
     68  CE3       -4.7550   13.0970   -0.5840 C.ar  129  TRP129      0.0012
     69  CZ2       -7.4830   13.7090   -1.1200 C.ar  129  TRP129      0.0191
     70  CZ3       -5.1460   14.3430   -1.1100 C.ar  129  TRP129      0.0001
     71  CH2       -6.4970   14.6280   -1.3710 C.ar  129  TRP129      0.0015
     72  N         -1.6160    8.8580    0.3530 N.am  130  GLY130     -0.1940
     73  CA        -0.4700    8.2660    1.0260 C.3   130  GLY130      0.2014
     74  C          0.8500    8.9100    0.6840 C.2   130  GLY130      0.2639
     75  O          0.8870   10.0640    0.2710 O.2   130  GLY130     -0.2714
     76  N          1.9320    8.1580    0.8560 N.am  131  GLY131     -0.1940
     77  CA         3.2590    8.6590    0.5500 C.3   131  GLY131      0.1998
     78  C          4.3660    7.7110    0.9730 C.2   131  GLY131      0.2480
     79  O          4.1410    6.8730    1.8470 O.2   131  GLY131     -0.2729
     80  N          5.5760    7.8220    0.3830 N.am  132  PRO132     -0.2726
     81  CA         6.6870    6.9380    0.7450 C.3   132  PRO132      0.1402
     82  C          6.6540    6.6520    2.2270 C.2   132  PRO132      0.2269
     83  O          6.5410    7.5740    3.0270 O.2   132  PRO132     -0.2865
     84  CB         7.9120    7.7550    0.3460 C.3   132  PRO132      0.0296
     85  CG         7.4450    8.4400   -0.8890 C.3   132  PRO132      0.0237
     86  CD         6.0490    8.9020   -0.5090 C.3   132  PRO132      0.0939
     87  N          7.3900    9.4890    6.0370 N.3   136  TRP136     -0.1241
     88  CA         6.5160    9.7640    7.1640 C.3   136  TRP136      0.1605
     89  C          7.2710    9.7890    8.4760 C.2   136  TRP136      0.2264
     90  O          8.1290    8.9530    8.7250 O.2   136  TRP136     -0.2867
     91  CB         5.4370    8.6940    7.3110 C.3   136  TRP136      0.0550
     92  CG         4.4830    8.6050    6.1880 C.ar  136  TRP136      0.0003
     93  CD1        4.6360    7.9040    5.0300 C.ar  136  TRP136      0.0946
     94  CD2        3.2060    9.2330    6.1170 C.ar  136  TRP136      0.0152
     95  NE1        3.5270    8.0530    4.2400 N.ar  136  TRP136     -0.2442
     96  CE2        2.6320    8.8670    4.8860 C.ar  136  TRP136      0.0810
     97  CE3        2.4880   10.0730    6.9790 C.ar  136  TRP136      0.0012
     98  CZ2        1.3640    9.3140    4.4900 C.ar  136  TRP136      0.0191
     99  CZ3        1.2320   10.5140    6.5890 C.ar  136  TRP136      0.0001
    100  CH2        0.6820   10.1350    5.3550 C.ar  136  TRP136      0.0015
    101  N         -4.7320    2.2810   -1.5990 N.3   161  ALA161     -0.1245
    102  CA        -4.0030    2.1940   -2.8640 C.3   161  ALA161      0.1562
    103  C         -2.4950    2.1150   -2.5940 C.2   161  ALA161      0.2260
    104  O         -1.9810    2.7110   -1.6310 O.2   161  ALA161     -0.2867
    105  CB        -4.3080    3.4180   -3.7340 C.3   161  ALA161      0.0290
    106  N         -0.0930    3.3260   -4.5470 N.3   163  GLY163     -0.1210
    107  CA         0.6550    4.4580   -5.0560 C.3   163  GLY163      0.1956
    108  C          0.6810    4.4500   -6.5680 C.2   163  GLY163      0.2612
    109  O          0.3560    3.4280   -7.1700 O.2   163  GLY163     -0.2717
    110  N          1.0840    5.5580   -7.1940 N.am  164  ASP164     -0.1959
    111  CA         1.0980    5.5970   -8.6600 C.3   164  ASP164      0.1840
    112  C          2.4370    5.9110   -9.3000 C.2   164  ASP164      0.2622
    113  O          2.4730    6.3580  -10.4450 O.2   164  ASP164     -0.2715
    114  CB         0.0700    6.6060   -9.1600 C.3   164  ASP164      0.1450
    115  CG        -1.3100    6.3110   -8.6490 C.2   164  ASP164      0.3671
    116  OD1       -2.1420    7.2410   -8.6140 O.co2 164  ASP164     -0.2456
    117  OD2       -1.5620    5.1390   -8.2800 O.co2 164  ASP164     -0.2456
    118  N          3.5330    5.6280   -8.6050 N.am  165  SER165     -0.1950
    119  CA         4.8400    5.9610   -9.1440 C.3   165  SER165      0.1924
    120  C          5.8630    4.8380   -9.2110 C.2   165  SER165      0.2314
    121  O          7.0760    5.0740   -9.0640 O.2   165  SER165     -0.2863
    122  CB         5.3980    7.1280   -8.3460 C.3   165  SER165      0.2116
    123  OG         4.3240    7.9860   -8.0350 O.3   165  SER165     -0.2180
    124  N          8.3860    5.0010   -5.8400 N.3   169  ASP169     -0.1225
    125  CA         7.3550    5.8160   -5.2050 C.3   169  ASP169      0.1805
    126  C          7.5300    7.3370   -5.2520 C.2   169  ASP169      0.2598
    127  O          7.3040    8.0210   -4.2520 O.2   169  ASP169     -0.2718
    128  CB         7.1430    5.3940   -3.7530 C.3   169  ASP169      0.1424
    129  CG         5.7070    5.5620   -3.3330 C.2   169  ASP169      0.3668
    130  OD1        5.3960    5.6770   -2.1390 O.co2 169  ASP169     -0.2456
    131  OD2        4.8600    5.5770   -4.2290 O.co2 169  ASP169     -0.2456
    132  N          7.9120    7.8570   -6.4170 N.am  170  GLY170     -0.1957
    133  CA         8.0760    9.2880   -6.5830 C.3   170  GLY170      0.1869
    134  C          9.2670    9.9310   -5.9000 C.2   170  GLY170      0.2309
    135  O          9.2440   11.1290   -5.6210 O.2   170  GLY170     -0.2863
    136  N          4.6810    2.6680   -0.5130 N.3   179  ASP179     -0.1239
    137  CA         3.8460    3.6770    0.0900 C.3   179  ASP179      0.1674
    138  C          3.0390    3.3150    1.3530 C.2   179  ASP179      0.2266
    139  O          2.4340    2.2420    1.4530 O.2   179  ASP179     -0.2867
    140  CB         2.9210    4.1870   -0.9980 C.3   179  ASP179      0.1410
    141  CG         2.3470    5.5330   -0.6880 C.2   179  ASP179      0.3668
    142  OD1        1.4130    5.5920    0.1340 O.co2 179  ASP179     -0.2456
    143  OD2        2.8440    6.5220   -1.2740 O.co2 179  ASP179     -0.2456
    144  N         -7.7870    7.1820  -13.6720 N.3   275  GLY275     -0.1210
    145  CA        -7.2250    5.8840  -13.3660 C.3   275  GLY275      0.1956
    146  C         -6.5140    5.9860  -12.0400 C.2   275  GLY275      0.2612
    147  O         -7.0060    6.6720  -11.1460 O.2   275  GLY275     -0.2717
    148  N         -5.3690    5.3080  -11.9220 N.am  276  GLY276     -0.1942
    149  CA        -4.5680    5.3420  -10.7040 C.3   276  GLY276      0.2014
    150  C         -5.0490    4.3890   -9.6400 C.2   276  GLY276      0.2640
    151  O         -6.2420    4.0990   -9.5650 O.2   276  GLY276     -0.2714
    152  N         -4.1400    3.9020   -8.8020 N.am  277  THR277     -0.1936
    153  CA        -4.5350    2.9690   -7.7470 C.3   277  THR277      0.2028
    154  C         -5.6760    3.5030   -6.8950 C.2   277  THR277      0.2642
    155  O         -6.4130    2.7370   -6.2940 O.2   277  THR277     -0.2714
    156  CB        -3.3520    2.6140   -6.8360 C.3   277  THR277      0.1808
    157  OG1       -2.7450    3.8140   -6.3280 O.3   277  THR277     -0.2208
    158  CG2       -2.3240    1.7920   -7.6120 C.3   277  THR277      0.0379
    159  N         -5.8230    4.8200   -6.8590 N.am  278  SER278     -0.1949
    160  CA        -6.8870    5.4720   -6.0980 C.3   278  SER278      0.1924
    161  C         -8.2280    4.7890   -6.3180 C.2   278  SER278      0.2314
    162  O         -9.0440    4.6820   -5.4090 O.2   278  SER278     -0.2863
    163  CB        -7.0270    6.9350   -6.5310 C.3   278  SER278      0.2116
    164  OG        -5.9510    7.7360   -6.0340 O.3   278  SER278     -0.2180
@<TRIPOS>BOND
     1   144   145    1
     2   145   146    1
     3   146   148   am
     4   146   147    2
     5   148   149    1
     6   149   150    1
     7   113   112    2
     8    31    30    1
     9   150   151    2
    10   150   152   am
    11   112   111    1
    12   112   118   am
    13   120   119    1
    14   120   121    2
    15   114   111    1
    16   114   115    1
    17   119   118    1
    18   119   122    1
    19   152   153    1
    20   111   110    1
    21    29    30    1
    22    29    26    1
    23   115   116   ar
    24   115   117   ar
    25    30    32    1
    26   122   123    1
    27    26    25    1
    28    26    27    1
    29   153   154    1
    30   153   156    1
    31   158   156    1
    32    28    27    2
    33   110   108   am
    34   109   108    2
    35    16    17    1
    36   154   159   am
    37   154   155    2
    38   159   160    1
    39   156   157    1
    40   133   132    1
    41   133   134    1
    42   108   107    1
    43   163   160    1
    44   163   164    1
    45     9    15    1
    46     9    10    1
    47   132   126   am
    48   161   160    1
    49   161   162    2
    50    17    20    1
    51    17    18    1
    52   134   135    2
    53    15    14    1
    54   124   125    1
    55    11    10    1
    56    11    12    2
    57    10    13    1
    58    20    21    1
    59    18    19    2
    60   126   125    1
    61   126   127    2
    62   125   128    1
    63    23    22   ar
    64   107   106    1
    65    22    24   ar
    66    22    21    1
    67    14    13    1
    68   131   129   ar
    69   128   129    1
    70   105   102    1
    71   129   130   ar
    72   102   103    1
    73   102   101    1
    74    57    56    1
    75    56    53    1
    76   103   104    2
    77    55    54    2
    78    54    53    1
    79    54    58   am
    80    53    52    1
    81    71    69   ar
    82    71    70   ar
    83   143   141   ar
    84    69    67   ar
    85    70    68   ar
    86   140   141    1
    87   140   137    1
    88    85    86    1
    89    85    84    1
    90   141   142   ar
    91    67    65   ar
    92    67    66   ar
    93    68    65   ar
    94   136   137    1
    95    86    80    1
    96    58    59    1
    97    65    63   ar
    98    66    64   ar
    99    59    60    1
   100    59    62    1
   101   137   138    1
   102    63    64   ar
   103    63    62    1
   104    75    74    2
   105    84    81    1
   106    72    60   am
   107    72    73    1
   108    80    81    1
   109    80    78   am
   110    60    61    2
   111    77    76    1
   112    77    78    1
   113    74    76   am
   114    74    73    1
   115    81    82    1
   116    78    79    2
   117   138   139    2
   118    40    38   am
   119     3     4    2
   120     3     2    1
   121     1     2    1
   122    82    83    2
   123     5     2    1
   124     5     6    1
   125    38    39    2
   126    38    37    1
   127     7     6    1
   128     6     8    1
   129    37    34    1
   130    95    96   ar
   131    95    93   ar
   132    51    49   ar
   133    51    50   ar
   134    98    96   ar
   135    98   100   ar
   136    49    47   ar
   137    96    94   ar
   138    34    33    1
   139    34    35    1
   140    93    92   ar
   141    50    48   ar
   142   100    99   ar
   143    36    35    2
   144    47    46   ar
   145    87    88    1
   146    94    92   ar
   147    94    97   ar
   148    92    91    1
   149    48    46   ar
   150    46    45    1
   151    99    97   ar
   152    88    91    1
   153    88    89    1
   154    45    42    1
   155    42    41    1
   156    42    43    1
   157    89    90    2
   158    43    44    2
