@<TRIPOS>MOLECULE
tmp/1gtvB00.pdb
 183 176 0 0 0
SMALL
GASTEIGER

@<TRIPOS>ATOM
      1  N         21.5300   16.7490   13.5000 N.3     9  ASP9       -0.1239
      2  CA        21.9680   17.7270   12.5170 C.3     9  ASP9        0.1674
      3  C         21.7500   19.1320   13.0600 C.2     9  ASP9        0.2266
      4  O         20.6780   19.4400   13.5710 O.2     9  ASP9       -0.2867
      5  CB        21.1870   17.5280   11.2160 C.3     9  ASP9        0.1410
      6  CG        21.5800   16.2510   10.4990 C.2     9  ASP9        0.3668
      7  OD1       22.6380   16.2480    9.8410 O.co2   9  ASP9       -0.2456
      8  OD2       20.8390   15.2500   10.6020 O.co2   9  ASP9       -0.2456
      9  N         28.0900   20.3260   16.4610 N.3    13  LYS13      -0.1245
     10  CA        29.2180   19.4080   16.5930 C.3    13  LYS13       0.1561
     11  C         30.5320   19.9240   16.0090 C.2    13  LYS13       0.2260
     12  O         31.5740   19.8580   16.6590 O.2    13  LYS13      -0.2867
     13  CB        28.8780   18.0580   15.9480 C.3    13  LYS13       0.0271
     14  CG        27.6910   17.3410   16.5750 C.3    13  LYS13       0.0035
     15  CD        27.4990   15.9410   15.9890 C.3    13  LYS13       0.0206
     16  CE        27.1610   15.9750   14.4990 C.3    13  LYS13       0.1093
     17  NZ        25.8520   16.6300   14.2290 N.3    13  LYS13      -0.1314
     18  N         33.0020   12.2030    9.8020 N.3    36  PHE36      -0.1228
     19  CA        32.2550   11.2190    9.0340 C.3    36  PHE36       0.1721
     20  C         30.8840   11.8330    8.7860 C.2    36  PHE36       0.2437
     21  O         30.3200   12.4840    9.6650 O.2    36  PHE36      -0.2733
     22  CB        32.1230    9.9130    9.8220 C.3    36  PHE36       0.0547
     23  CG        33.4040    9.1410    9.9180 C.ar   36  PHE36      -0.0202
     24  CD1       33.9210    8.4900    8.8050 C.ar   36  PHE36      -0.0042
     25  CD2       34.1200    9.1000   11.1130 C.ar   36  PHE36      -0.0042
     26  CE1       35.1390    7.8090    8.8730 C.ar   36  PHE36      -0.0003
     27  CE2       35.3380    8.4250   11.1930 C.ar   36  PHE36      -0.0003
     28  CZ        35.8480    7.7790   10.0710 C.ar   36  PHE36      -0.0000
     29  N         30.3290   11.6450    7.5800 N.am   37  PRO37      -0.2729
     30  CA        30.8710   10.9070    6.4340 C.3    37  PRO37       0.1401
     31  C         32.0710   11.6170    5.8230 C.2    37  PRO37       0.2269
     32  O         32.1460   12.8430    5.8380 O.2    37  PRO37      -0.2865
     33  CB        29.6970   10.8620    5.4520 C.3    37  PRO37       0.0296
     34  CG        28.4840   11.1370    6.3110 C.3    37  PRO37       0.0237
     35  CD        28.9870   12.1630    7.2750 C.3    37  PRO37       0.0939
     36  N         33.0880   12.9170    3.0930 N.3    39  TYR39      -0.1241
     37  CA        32.7220   13.4360    1.7800 C.3    39  TYR39       0.1605
     38  C         33.9380   13.6770    0.8970 C.2    39  TYR39       0.2264
     39  O         34.9290   14.2670    1.3300 O.2    39  TYR39      -0.2867
     40  CB        31.9320   14.7330    1.9410 C.3    39  TYR39       0.0534
     41  CG        30.6580   14.5600    2.7340 C.ar   39  TYR39      -0.0201
     42  CD1       30.3920   15.3610    3.8390 C.ar   39  TYR39      -0.0009
     43  CD2       29.7200   13.5910    2.3790 C.ar   39  TYR39      -0.0009
     44  CE1       29.2220   15.2060    4.5760 C.ar   39  TYR39       0.0417
     45  CE2       28.5470   13.4270    3.1060 C.ar   39  TYR39       0.0417
     46  CZ        28.3040   14.2380    4.2030 C.ar   39  TYR39       0.1957
     47  OH        27.1410   14.0870    4.9220 O.3    39  TYR39      -0.2866
     48  N         25.3850   10.6050    0.5130 N.3    49  ALA49      -0.1245
     49  CA        24.9710   12.0020    0.5350 C.3    49  ALA49       0.1562
     50  C         24.1020   12.3310   -0.6710 C.2    49  ALA49       0.2260
     51  O         23.0680   12.9880   -0.5420 O.2    49  ALA49      -0.2867
     52  CB        26.1960   12.9050    0.5520 C.3    49  ALA49       0.0290
     53  N         20.6710   11.0800   -0.2830 N.3    52  LEU52      -0.1231
     54  CA        19.8770   11.8960    0.6250 C.3    52  LEU52       0.1693
     55  C         19.4650   13.2060   -0.0340 C.2    52  LEU52       0.2592
     56  O         18.6340   13.9410    0.4990 O.2    52  LEU52      -0.2718
     57  CB        20.6450   12.1630    1.9220 C.3    52  LEU52       0.0284
     58  CG        20.8770   10.9100    2.7770 C.3    52  LEU52       0.0019
     59  CD1       21.6000   11.3000    4.0550 C.3    52  LEU52       0.0001
     60  CD2       19.5410   10.2360    3.0950 C.3    52  LEU52       0.0001
     61  N         20.0450   13.4990   -1.1920 N.am   53  HIS53      -0.1976
     62  CA        19.6740   14.7090   -1.9190 C.3    53  HIS53       0.1656
     63  C         18.8230   14.3980   -3.1450 C.2    53  HIS53       0.2291
     64  O         18.6770   15.2310   -4.0390 O.2    53  HIS53      -0.2864
     65  CB        20.9090   15.5240   -2.3030 C.3    53  HIS53       0.0771
     66  CG        21.4420   16.3510   -1.1750 C.ar   53  HIS53       0.0820
     67  ND1       22.3690   15.8760   -0.2730 N.ar   53  HIS53      -0.2267
     68  CD2       21.1220   17.6010   -0.7620 C.ar   53  HIS53       0.1154
     69  CE1       22.5970   16.7970    0.6470 C.ar   53  HIS53       0.1986
     70  NE2       21.8520   17.8530    0.3740 N.ar   53  HIS53      -0.2212
     71  N         27.3870    4.1540    5.2430 N.3    70  PHE70      -0.1241
     72  CA        28.1540    4.9040    6.2300 C.3    70  PHE70       0.1605
     73  C         29.1440    3.9970    6.9380 C.2    70  PHE70       0.2264
     74  O         30.2280    4.4360    7.3080 O.2    70  PHE70      -0.2867
     75  CB        27.2210    5.5850    7.2370 C.3    70  PHE70       0.0534
     76  CG        26.3930    6.6870    6.6340 C.ar   70  PHE70      -0.0203
     77  CD1       25.0060    6.6520    6.7090 C.ar   70  PHE70      -0.0042
     78  CD2       27.0060    7.7550    5.9840 C.ar   70  PHE70      -0.0042
     79  CE1       24.2320    7.6730    6.1420 C.ar   70  PHE70      -0.0003
     80  CE2       26.2460    8.7780    5.4160 C.ar   70  PHE70      -0.0003
     81  CZ        24.8550    8.7360    5.4960 C.ar   70  PHE70      -0.0000
     82  N         33.3920    4.2000    6.9600 N.3    74  ARG74      -0.1245
     83  CA        34.2670    4.0310    8.1110 C.3    74  ARG74       0.1563
     84  C         35.2130    2.8470    7.9310 C.2    74  ARG74       0.2260
     85  O         36.3610    2.9000    8.3730 O.2    74  ARG74      -0.2867
     86  CB        33.4500    3.8620    9.3960 C.3    74  ARG74       0.0307
     87  CG        32.9600    5.1860    9.9740 C.3    74  ARG74       0.0489
     88  CD        32.2600    4.9920   11.3010 C.3    74  ARG74       0.2205
     89  NE        30.9240    4.4200   11.1550 N.pl3  74  ARG74      -0.0865
     90  CZ        29.8380    5.1190   10.8370 C.cat  74  ARG74       0.5346
     91  NH1       29.9130    6.4300   10.6260 N.pl3  74  ARG74       0.1354
     92  NH2       28.6700    4.5070   10.7440 N.pl3  74  ARG74       0.1354
     93  N         34.1030   13.8230   14.3060 N.3    94  ASP94      -0.1225
     94  CA        32.8570   14.5570   14.1540 C.3    94  ASP94       0.1805
     95  C         31.9520   13.4810   13.5660 C.2    94  ASP94       0.2597
     96  O         31.9560   13.2480   12.3570 O.2    94  ASP94      -0.2718
     97  CB        33.0500   15.7180   13.1750 C.3    94  ASP94       0.1424
     98  CG        31.7950   16.5440   12.9870 C.2    94  ASP94       0.3668
     99  OD1       31.9070   17.6430   12.4060 O.co2  94  ASP94      -0.2456
    100  OD2       30.7020   16.1020   13.4010 O.co2  94  ASP94      -0.2456
    101  N         31.2260   12.8210   14.4670 N.am   95  ARG95      -0.1979
    102  CA        30.3230   11.7110   14.1530 C.3    95  ARG95       0.1597
    103  C         31.1380   10.4230   14.0760 C.2    95  ARG95       0.2287
    104  O         32.2870   10.4160   13.6320 O.2    95  ARG95      -0.2864
    105  CB        29.5660   11.8930   12.8360 C.3    95  ARG95       0.0334
    106  CG        28.3800   12.8340   12.9070 C.3    95  ARG95       0.0492
    107  CD        27.4610   12.6130   11.7060 C.3    95  ARG95       0.2205
    108  NE        26.3360   13.5500   11.6840 N.pl3  95  ARG95      -0.0865
    109  CZ        25.3330   13.5480   12.5550 C.cat  95  ARG95       0.5346
    110  NH1       24.3580   14.4460   12.4520 N.pl3  95  ARG95       0.1354
    111  NH2       25.2930   12.6510   13.5320 N.pl3  95  ARG95       0.1354
    112  N         26.2700    7.4730   15.4210 N.3    99  SER99      -0.1202
    113  CA        25.3920    8.2080   14.5130 C.3    99  SER99       0.2020
    114  C         24.5510    7.2060   13.7350 C.2    99  SER99       0.2618
    115  O         23.3630    7.4110   13.5130 O.2    99  SER99      -0.2717
    116  CB        26.1990    9.0440   13.5160 C.3    99  SER99       0.2103
    117  OG        26.7130   10.2240   14.1120 O.3    99  SER99      -0.2182
    118  N         25.1780    6.1150   13.3160 N.am  100  ASN100     -0.1974
    119  CA        24.4630    5.1000   12.5540 C.3   100  ASN100      0.1688
    120  C         23.3940    4.4100   13.4030 C.2   100  ASN100      0.2292
    121  O         22.2970    4.1350   12.9230 O.2   100  ASN100     -0.2864
    122  CB        25.4500    4.0720   11.9930 C.3   100  ASN100      0.1181
    123  CG        25.3000    3.8740   10.4900 C.2   100  ASN100      0.2629
    124  OD1       24.5850    4.6200    9.8140 O.2   100  ASN100     -0.2716
    125  ND2       25.9850    2.8700    9.9580 N.am  100  ASN100     -0.0877
    126  N         20.4110    7.2820   14.0990 N.3   103  TYR103     -0.1227
    127  CA        19.5710    7.5650   12.9440 C.3   103  TYR103      0.1736
    128  C         18.8390    6.3390   12.4090 C.2   103  TYR103      0.2596
    129  O         17.6800    6.4450   12.0110 O.2   103  TYR103     -0.2718
    130  CB        20.3810    8.2220   11.8160 C.3   103  TYR103      0.0548
    131  CG        20.6660    9.6850   12.0620 C.ar  103  TYR103     -0.0200
    132  CD1       21.7280   10.0790   12.8730 C.ar  103  TYR103     -0.0009
    133  CD2       19.8410   10.6720   11.5290 C.ar  103  TYR103     -0.0009
    134  CE1       21.9610   11.4220   13.1520 C.ar  103  TYR103      0.0417
    135  CE2       20.0670   12.0220   11.8030 C.ar  103  TYR103      0.0417
    136  CZ        21.1290   12.3840   12.6140 C.ar  103  TYR103      0.1957
    137  OH        21.3820   13.7140   12.8800 O.3   103  TYR103     -0.2866
    138  N         19.4960    5.1790   12.4030 N.am  104  SER104     -0.1952
    139  CA        18.8380    3.9700   11.9080 C.3   104  SER104      0.1924
    140  C         17.6660    3.5750   12.8010 C.2   104  SER104      0.2314
    141  O         16.5860    3.2460   12.3110 O.2   104  SER104     -0.2863
    142  CB        19.8320    2.8110   11.8190 C.3   104  SER104      0.2116
    143  OG        20.8610    3.1040   10.8910 O.3   104  SER104     -0.2180
    144  N         25.0110   23.9770    0.7650 N.3   160  ARG160     -0.1245
    145  CA        24.5890   23.2150    1.9320 C.3   160  ARG160      0.1563
    146  C         23.0790   23.1430    2.1060 C.2   160  ARG160      0.2260
    147  O         22.5590   23.3950    3.1920 O.2   160  ARG160     -0.2867
    148  CB        25.2390   23.7700    3.2050 C.3   160  ARG160      0.0307
    149  CG        26.7310   23.4680    3.3020 C.3   160  ARG160      0.0489
    150  CD        27.2880   23.7390    4.6970 C.3   160  ARG160      0.2205
    151  NE        27.2780   25.1580    5.0390 N.pl3 160  ARG160     -0.0865
    152  CZ        27.7830   25.6540    6.1640 C.cat 160  ARG160      0.5346
    153  NH1       28.3360   24.8430    7.0560 N.pl3 160  ARG160      0.1354
    154  NH2       27.7350   26.9590    6.4000 N.pl3 160  ARG160      0.1354
    155  N         19.2510   17.9390    3.4900 N.3   163  ASP163     -0.1239
    156  CA        19.0060   16.6500    2.8570 C.3   163  ASP163      0.1674
    157  C         17.7400   16.0340    3.4380 C.2   163  ASP163      0.2266
    158  O         17.0980   16.6200    4.3100 O.2   163  ASP163     -0.2867
    159  CB        20.2050   15.6960    3.0060 C.3   163  ASP163      0.1410
    160  CG        20.5580   15.3930    4.4450 C.2   163  ASP163      0.3668
    161  OD1       19.6480   15.1640    5.2720 O.co2 163  ASP163     -0.2456
    162  OD2       21.7710   15.3600    4.7420 O.co2 163  ASP163     -0.2456
    163  N         17.1290   13.6600    5.5860 N.3   165  TYR165     -0.1227
    164  CA        17.0820   13.4930    7.0360 C.3   165  TYR165      0.1736
    165  C         16.8390   14.8250    7.7470 C.2   165  TYR165      0.2595
    166  O         16.0480   14.9060    8.6910 O.2   165  TYR165     -0.2718
    167  CB        18.3890   12.8840    7.5590 C.3   165  TYR165      0.0548
    168  CG        18.6320   11.4190    7.2300 C.ar  165  TYR165     -0.0200
    169  CD1       17.7460   10.6860    6.4370 C.ar  165  TYR165     -0.0009
    170  CD2       19.7740   10.7750    7.7060 C.ar  165  TYR165     -0.0009
    171  CE1       18.0020    9.3400    6.1230 C.ar  165  TYR165      0.0417
    172  CE2       20.0350    9.4380    7.4000 C.ar  165  TYR165      0.0417
    173  CZ        19.1500    8.7310    6.6100 C.ar  165  TYR165      0.1957
    174  OH        19.4370    7.4180    6.3040 O.3   165  TYR165     -0.2866
    175  N         17.5250   15.8660    7.2880 N.am  166  GLU166     -0.1979
    176  CA        17.4050   17.1880    7.8920 C.3   166  GLU166      0.1602
    177  C         16.0370   17.8280    7.6940 C.2   166  GLU166      0.2287
    178  O         15.6050   18.6390    8.5170 O.2   166  GLU166     -0.2864
    179  CB        18.5090   18.0940    7.3430 C.3   166  GLU166      0.0415
    180  CG        19.8960   17.6610    7.8200 C.3   166  GLU166      0.1163
    181  CD        21.0370   18.3050    7.0570 C.2   166  GLU166      0.3649
    182  OE1       22.1610   18.3360    7.6030 O.co2 166  GLU166     -0.2457
    183  OE2       20.8260   18.7620    5.9130 O.co2 166  GLU166     -0.2457
@<TRIPOS>BOND
     1    64    63    2
     2    63    62    1
     3    65    62    1
     4    65    66    1
     5    62    61    1
     6    61    55   am
     7    66    68   ar
     8    66    67   ar
     9    68    70   ar
    10    50    51    2
    11    50    49    1
    12    53    54    1
    13    67    69   ar
    14    55    56    2
    15    55    54    1
    16    70    69   ar
    17    48    49    1
    18    49    52    1
    19    54    57    1
    20   144   145    1
    21    38    39    2
    22    38    37    1
    23    37    40    1
    24    37    36    1
    25    57    58    1
    26   145   146    1
    27   145   148    1
    28    40    41    1
    29   146   147    2
    30    43    41   ar
    31    43    45   ar
    32    41    42   ar
    33    58    60    1
    34    58    59    1
    35   156   159    1
    36   156   157    1
    37   156   155    1
    38   159   160    1
    39    45    46   ar
    40   148   149    1
    41   149   150    1
    42   157   158    2
    43    42    44   ar
    44    46    44   ar
    45    46    47    1
    46   160   162   ar
    47   160   161   ar
    48   150   151    1
    49   151   152    2
    50    71    72    1
    51    80    81   ar
    52    80    78   ar
    53    33    34    1
    54    33    30    1
    55    81    79   ar
    56   163   164    1
    57    31    32    2
    58    31    30    1
    59   183   181   ar
    60    78    76   ar
    61   171   169   ar
    62   171   173   ar
    63    79    77   ar
    64   152   154    1
    65   152   153    1
    66    72    73    1
    67    72    75    1
    68   174   173    1
    69    34    35    1
    70    30    29    1
    71   169   168   ar
    72   173   172   ar
    73    76    77   ar
    74    76    75    1
    75    73    74    2
    76    82    83    1
    77   164   167    1
    78   164   165    1
    79   181   182   ar
    80   181   180    1
    81   168   167    1
    82   168   170   ar
    83    35    29    1
    84   175   165   am
    85   175   176    1
    86   179   180    1
    87   179   176    1
    88   172   170   ar
    89    29    20   am
    90   177   176    1
    91   177   178    2
    92   165   166    2
    93    84    83    1
    94    84    85    2
    95    83    86    1
    96    20    19    1
    97    20    21    2
    98    24    26   ar
    99    24    23   ar
   100    26    28   ar
   101    19    18    1
   102    19    22    1
   103    86    87    1
   104   124   123    2
   105    22    23    1
   106     7     6   ar
   107    23    25   ar
   108   125   123   am
   109    87    88    1
   110    28    27   ar
   111   123   122    1
   112     6     8   ar
   113     6     5    1
   114    91    90    1
   115    92    90    1
   116    90    89    2
   117   143   142    1
   118    25    27   ar
   119    89    88    1
   120     5     2    1
   121   133   135   ar
   122   133   131   ar
   123   108   107    1
   124   108   109    2
   125   107   106    1
   126   135   136   ar
   127   130   131    1
   128   130   127    1
   129   142   139    1
   130   139   138    1
   131   139   140    1
   132   122   119    1
   133   129   128    2
   134   131   132   ar
   135   141   140    2
   136    96    95    2
   137   138   128   am
   138    99    98   ar
   139   128   127    1
   140   110   109    1
   141     2     3    1
   142     2     1    1
   143   119   118    1
   144   119   120    1
   145   109   111    1
   146   136   137    1
   147   136   134   ar
   148   105   106    1
   149   105   102    1
   150   132   134   ar
   151   121   120    2
   152   127   126    1
   153    98    97    1
   154    98   100   ar
   155     3     4    2
   156    97    94    1
   157   118   114   am
   158   115   114    2
   159   116   117    1
   160   116   113    1
   161    95    94    1
   162    95   101   am
   163   104   103    2
   164   114   113    1
   165   103   102    1
   166   102   101    1
   167    94    93    1
   168    17    16    1
   169    16    15    1
   170   113   112    1
   171    13    14    1
   172    13    10    1
   173    15    14    1
   174    11    10    1
   175    11    12    2
   176     9    10    1
