@<TRIPOS>MOLECULE
tmp/1gtzE01.pdb
 117 112 0 0 0
SMALL
GASTEIGER

@<TRIPOS>ATOM
      1  N         18.0710  -18.8190   -2.0770 N.3    14  PRO14      -0.2102
      2  CA        16.9710  -18.3760   -2.9530 C.3    14  PRO14       0.1504
      3  C         17.3960  -17.2770   -3.8710 C.2    14  PRO14       0.2576
      4  O         18.2700  -16.4670   -3.6000 O.2    14  PRO14      -0.2718
      5  CB        15.8340  -17.8980   -1.9980 C.3    14  PRO14       0.0282
      6  CG        16.5260  -17.7090   -0.6740 C.3    14  PRO14       0.0208
      7  CD        17.6320  -18.7140   -0.7140 C.3    14  PRO14       0.0893
      8  N         16.8510  -17.2090   -5.1290 N.am   15  ASN15      -0.1961
      9  CA        17.0780  -16.2430   -6.0840 C.3    15  ASN15       0.1819
     10  C         18.4160  -16.2860   -6.8010 C.2    15  ASN15       0.2621
     11  O         18.5470  -15.6260   -7.8250 O.2    15  ASN15      -0.2715
     12  CB        16.7540  -14.7530   -5.6760 C.3    15  ASN15       0.1195
     13  CG        15.4270  -14.6880   -4.9800 C.2    15  ASN15       0.2630
     14  OD1       14.3790  -14.8010   -5.6030 O.2    15  ASN15      -0.2716
     15  ND2       15.4060  -14.4460   -3.6910 N.am   15  ASN15      -0.0877
     16  N         19.4460  -17.0090   -6.3610 N.am   16  LEU16      -0.1977
     17  CA        20.7540  -17.1990   -6.9440 C.3    16  LEU16       0.1596
     18  C         20.6960  -17.9040   -8.2970 C.2    16  LEU16       0.2287
     19  O         21.5800  -17.5800   -9.1160 O.2    16  LEU16      -0.2864
     20  CB        21.8410  -17.7070   -5.9960 C.3    16  LEU16       0.0297
     21  CG        22.1870  -16.7850   -4.8260 C.3    16  LEU16       0.0022
     22  CD1       22.8990  -17.5260   -3.6940 C.3    16  LEU16       0.0001
     23  CD2       23.0390  -15.6130   -5.3130 C.3    16  LEU16       0.0001
     24  N         25.0700   -7.4570   -8.0090 N.3    27  TYR27      -0.1241
     25  CA        25.6450   -8.8070   -7.9570 C.3    27  TYR27       0.1605
     26  C         26.5170   -9.2280   -9.1420 C.2    27  TYR27       0.2264
     27  O         27.0550  -10.3180   -9.0720 O.2    27  TYR27      -0.2867
     28  CB        24.5620   -9.8780   -7.7120 C.3    27  TYR27       0.0534
     29  CG        23.6560   -9.7000   -6.5360 C.ar   27  TYR27      -0.0201
     30  CD1       22.3710   -9.2380   -6.7050 C.ar   27  TYR27      -0.0009
     31  CD2       24.0710   -9.9440   -5.2240 C.ar   27  TYR27      -0.0009
     32  CE1       21.4910   -9.0180   -5.6390 C.ar   27  TYR27       0.0417
     33  CE2       23.2700   -9.7160   -4.1470 C.ar   27  TYR27       0.0417
     34  CZ        21.9660   -9.3160   -4.3510 C.ar   27  TYR27       0.1957
     35  OH        21.1580   -9.0830   -3.2780 O.3    27  TYR27      -0.2866
     36  N         26.2980  -19.8240    0.3680 N.3    78  ASN78      -0.1240
     37  CA        25.7570  -18.4940    0.1610 C.3    78  ASN78       0.1653
     38  C         24.2440  -18.6330    0.4070 C.2    78  ASN78       0.2266
     39  O         23.4390  -18.9470   -0.5120 O.2    78  ASN78      -0.2867
     40  CB        26.0190  -17.9580   -1.2380 C.3    78  ASN78       0.1155
     41  CG        25.3970  -16.5350   -1.3830 C.2    78  ASN78       0.2627
     42  OD1       24.6400  -16.0780   -0.5100 O.2    78  ASN78      -0.2716
     43  ND2       25.8020  -15.8550   -2.4600 N.am   78  ASN78      -0.0877
     44  N         21.8930  -16.5480    0.7750 N.3    80  ALA80      -0.1231
     45  CA        21.2120  -15.4540    0.1560 C.3    80  ALA80       0.1694
     46  C         20.2510  -14.8740    1.1900 C.2    80  ALA80       0.2591
     47  O         20.7120  -14.7470    2.3680 O.2    80  ALA80      -0.2718
     48  CB        20.5270  -15.9860   -1.1230 C.3    80  ALA80       0.0304
     49  N         18.9480  -14.6640    0.8390 N.am   81  ALA81      -0.1980
     50  CA        18.0420  -14.0560    1.8570 C.3    81  ALA81       0.1597
     51  C         17.8110  -14.8450    3.1210 C.2    81  ALA81       0.2287
     52  O         17.6360  -14.2480    4.2090 O.2    81  ALA81      -0.2864
     53  CB        16.6700  -13.9080    1.1620 C.3    81  ALA81       0.0319
     54  N         19.6270  -14.0370    6.6500 N.3    84  HIS84      -0.1241
     55  CA        18.9800  -13.0630    7.5960 C.3    84  HIS84       0.1621
     56  C         17.8010  -13.5880    8.3280 C.2    84  HIS84       0.2264
     57  O         17.3830  -13.0350    9.3700 O.2    84  HIS84      -0.2867
     58  CB        18.5570  -11.7890    6.8330 C.3    84  HIS84       0.0745
     59  CG        19.5780  -11.3810    5.8430 C.ar   84  HIS84       0.0817
     60  ND1       20.9000  -11.1150    6.2470 N.ar   84  HIS84      -0.2268
     61  CD2       19.5500  -11.2990    4.5000 C.ar   84  HIS84       0.1154
     62  CE1       21.6470  -10.8840    5.2150 C.ar   84  HIS84       0.1986
     63  NE2       20.8400  -10.9420    4.1340 N.ar   84  HIS84      -0.2212
     64  N         28.8860  -14.0610    0.8990 N.3   105  HIS105     -0.1226
     65  CA        27.9360  -13.1120    0.3180 C.3   105  HIS105      0.1752
     66  C         28.6520  -12.4100   -0.8590 C.2   105  HIS105      0.2596
     67  O         29.7240  -11.9010   -0.6680 O.2   105  HIS105     -0.2718
     68  CB        27.3910  -12.0100    1.2420 C.3   105  HIS105      0.0759
     69  CG        26.7640  -12.6600    2.4430 C.ar  105  HIS105      0.0818
     70  ND1       25.5580  -13.3660    2.4280 N.ar  105  HIS105     -0.2268
     71  CD2       27.2870  -12.6900    3.6940 C.ar  105  HIS105      0.1154
     72  CE1       25.3790  -13.7960    3.6240 C.ar  105  HIS105      0.1986
     73  NE2       26.3720  -13.4100    4.3860 N.ar  105  HIS105     -0.2212
     74  N         28.0670  -12.3260   -2.0740 N.am  106  ILE106     -0.1966
     75  CA        28.6110  -11.6470   -3.1920 C.3   106  ILE106      0.1727
     76  C         28.7500  -10.1470   -2.9440 C.2   106  ILE106      0.2616
     77  O         29.8300   -9.5710   -3.2040 O.2   106  ILE106     -0.2715
     78  CB        27.8600  -11.9850   -4.4880 C.3   106  ILE106      0.0290
     79  CG1       27.9090  -13.5110   -4.7700 C.3   106  ILE106      0.0022
     80  CG2       28.1370  -11.1210   -5.6860 C.3   106  ILE106      0.0023
     81  CD1       26.8080  -13.9330   -5.7460 C.3   106  ILE106      0.0001
     82  N         27.6910   -9.5370   -2.5040 N.am  107  SER107     -0.1950
     83  CA        27.6200   -8.1330   -2.1490 C.3   107  SER107      0.1924
     84  C         28.1600   -7.9040   -0.7620 C.2   107  SER107      0.2314
     85  O         28.1250   -8.7360    0.0990 O.2   107  SER107     -0.2863
     86  CB        26.1680   -7.6330   -2.3470 C.3   107  SER107      0.2116
     87  OG        25.4250   -7.9730   -1.1240 O.3   107  SER107     -0.2180
     88  N         27.0550   -6.8710    2.3610 N.3   109  ILE109     -0.1245
     89  CA        25.8300   -6.7160    3.1300 C.3   109  ILE109      0.1561
     90  C         25.9290   -5.5670    4.1040 C.2   109  ILE109      0.2260
     91  O         24.9040   -4.9470    4.3550 O.2   109  ILE109     -0.2867
     92  CB        25.3190   -8.0350    3.7880 C.3   109  ILE109      0.0252
     93  CG1       26.3750   -8.6440    4.6850 C.3   109  ILE109      0.0019
     94  CG2       24.8930   -9.0030    2.7060 C.3   109  ILE109      0.0019
     95  CD1       25.9880   -9.6950    5.6700 C.3   109  ILE109      0.0001
     96  N         24.4590   -2.2830    2.9320 N.3   112  ARG112     -0.1245
     97  CA        23.0720   -2.2760    2.4260 C.3   112  ARG112      0.1563
     98  C         22.0770   -1.9960    3.5590 C.2   112  ARG112      0.2260
     99  O         22.4510   -1.4390    4.5970 O.2   112  ARG112     -0.2867
    100  CB        22.8110   -3.5910    1.6910 C.3   112  ARG112      0.0307
    101  CG        23.8520   -3.7660    0.5600 C.3   112  ARG112      0.0489
    102  CD        23.6030   -5.0700   -0.1800 C.3   112  ARG112      0.2205
    103  NE        22.3050   -5.0630   -0.8580 N.pl3 112  ARG112     -0.0865
    104  CZ        21.7330   -6.0800   -1.4470 C.cat 112  ARG112      0.5346
    105  NH1       22.3330   -7.2510   -1.5690 N.pl3 112  ARG112      0.1354
    106  NH2       20.5540   -5.9140   -2.0720 N.pl3 112  ARG112      0.1354
    107  N         19.8920   -6.4860    6.3730 N.3   116  ARG116     -0.1245
    108  CA        20.8720   -7.3640    5.7830 C.3   116  ARG116      0.1563
    109  C         22.1360   -7.4140    6.6690 C.2   116  ARG116      0.2260
    110  O         23.0220   -8.2410    6.3790 O.2   116  ARG116     -0.2867
    111  CB        21.1950   -6.9440    4.3290 C.3   116  ARG116      0.0307
    112  CG        19.9630   -6.9300    3.3890 C.3   116  ARG116      0.0489
    113  CD        20.4930   -6.6980    1.9660 C.3   116  ARG116      0.2205
    114  NE        19.3870   -6.5390    1.0750 N.pl3 116  ARG116     -0.0865
    115  CZ        18.6010   -7.3850    0.4920 C.cat 116  ARG116      0.5346
    116  NH1       18.7680   -8.7120    0.5960 N.pl3 116  ARG116      0.1354
    117  NH2       17.6290   -6.8280   -0.2830 N.pl3 116  ARG116      0.1354
@<TRIPOS>BOND
     1    26    27    2
     2    26    25    1
     3    19    18    2
     4    18    17    1
     5    24    25    1
     6    25    28    1
     7    11    10    2
     8    28    29    1
     9    17    16    1
    10    17    20    1
    11    10    16   am
    12    10     9    1
    13    30    29   ar
    14    30    32   ar
    15    29    31   ar
    16     9    12    1
    17     9     8    1
    18    20    21    1
    19    81    79    1
    20    80    78    1
    21    12    13    1
    22    32    34   ar
    23    14    13    2
    24    23    21    1
    25    31    33   ar
    26     8     3   am
    27    13    15   am
    28    21    22    1
    29    79    78    1
    30    78    75    1
    31    34    33   ar
    32    34    35    1
    33     3     4    2
    34     3     2    1
    35    77    76    2
    36    75    76    1
    37    75    74    1
    38     2     1    1
    39     2     5    1
    40    76    82   am
    41    82    83    1
    42    43    41   am
    43    86    83    1
    44    86    87    1
    45    83    84    1
    46     1     7    1
    47    74    66   am
    48   106   104    1
    49     5     6    1
    50   105   104    1
    51   104   103    2
    52    41    40    1
    53    41    42    2
    54    40    37    1
    55    48    45    1
    56    66    67    2
    57    66    65    1
    58   103   102    1
    59    84    85    2
    60     7     6    1
    61    39    38    2
    62   117   115    1
    63   102   101    1
    64    45    44    1
    65    45    46    1
    66    37    36    1
    67    37    38    1
    68    65    64    1
    69    65    68    1
    70   115   116    1
    71   115   114    2
    72   101   100    1
    73    49    46   am
    74    49    50    1
    75   114   113    1
    76    53    50    1
    77    46    47    2
    78    68    69    1
    79   100    97    1
    80    50    51    1
    81   113   112    1
    82    88    89    1
    83    97    96    1
    84    97    98    1
    85    70    69   ar
    86    70    72   ar
    87    69    71   ar
    88    94    92    1
    89    51    52    2
    90    89    92    1
    91    89    90    1
    92   112   111    1
    93    98    99    2
    94    72    73   ar
    95    71    73   ar
    96    92    93    1
    97    90    91    2
    98    63    61   ar
    99    63    62   ar
   100   111   108    1
   101    61    59   ar
   102    93    95    1
   103    62    60   ar
   104   108   107    1
   105   108   109    1
   106    59    60   ar
   107    59    58    1
   108   110   109    2
   109    54    55    1
   110    58    55    1
   111    55    56    1
   112    56    57    2
