@<TRIPOS>MOLECULE
tmp/1gu1L00.pdb
 117 112 0 0 0
SMALL
GASTEIGER

@<TRIPOS>ATOM
      1  N         13.9800   36.2930   12.6470 N.3    14  PRO14      -0.2102
      2  CA        12.6170   36.4750   13.1280 C.3    14  PRO14       0.1504
      3  C         12.2580   37.8920   13.4040 C.2    14  PRO14       0.2576
      4  O         13.0070   38.7600   13.7700 O.2    14  PRO14      -0.2718
      5  CB        12.4910   35.5640   14.3420 C.3    14  PRO14       0.0282
      6  CG        13.9010   35.3380   14.7500 C.3    14  PRO14       0.0208
      7  CD        14.7040   35.3270   13.5030 C.3    14  PRO14       0.0893
      8  N         10.9820   38.2110   13.1110 N.am   15  ASN15      -0.1961
      9  CA        10.3220   39.5010   13.3410 C.3    15  ASN15       0.1819
     10  C         10.7040   40.5650   12.3490 C.2    15  ASN15       0.2621
     11  O          9.9920   41.5740   12.3350 O.2    15  ASN15      -0.2715
     12  CB        10.5430   39.9720   14.7950 C.3    15  ASN15       0.1195
     13  CG         9.9830   38.9380   15.7960 C.2    15  ASN15       0.2630
     14  OD1        8.8250   38.5260   15.9360 O.2    15  ASN15      -0.2716
     15  ND2       10.9870   38.3620   16.4920 N.am   15  ASN15      -0.0877
     16  N         11.7540   40.4420   11.5230 N.am   16  LEU16      -0.1977
     17  CA        12.1760   41.4680   10.5680 C.3    16  LEU16       0.1596
     18  C         11.1710   41.6700    9.4700 C.2    16  LEU16       0.2287
     19  O         11.1900   42.7100    8.7860 O.2    16  LEU16      -0.2864
     20  CB        13.5820   41.1290   10.0590 C.3    16  LEU16       0.0297
     21  CG        14.6800   41.3790   11.1120 C.3    16  LEU16       0.0022
     22  CD1       15.9870   40.7220   10.6790 C.3    16  LEU16       0.0001
     23  CD2       14.8350   42.8870   11.3740 C.3    16  LEU16       0.0001
     24  N         14.6660   50.8530   14.9440 N.3    27  TYR27      -0.1241
     25  CA        14.8460   50.1840   13.6710 C.3    27  TYR27       0.1605
     26  C         14.6590   50.9640   12.3900 C.2    27  TYR27       0.2264
     27  O         14.8840   50.3600   11.3460 O.2    27  TYR27      -0.2867
     28  CB        13.8570   49.0070   13.6130 C.3    27  TYR27       0.0534
     29  CG        14.2800   47.9290   14.5610 C.ar   27  TYR27      -0.0201
     30  CD1       13.6340   47.5840   15.7270 C.ar   27  TYR27      -0.0009
     31  CD2       15.4650   47.2790   14.2220 C.ar   27  TYR27      -0.0009
     32  CE1       14.1120   46.5770   16.5540 C.ar   27  TYR27       0.0417
     33  CE2       15.9580   46.2930   15.0570 C.ar   27  TYR27       0.0417
     34  CZ        15.2980   45.9550   16.1970 C.ar   27  TYR27       0.1957
     35  OH        15.8650   44.9660   16.9430 O.3    27  TYR27      -0.2866
     36  N         21.4300   39.1530    9.0170 N.3    78  ASN78      -0.1240
     37  CA        20.8800   39.7480   10.2260 C.3    78  ASN78       0.1653
     38  C         20.0750   38.6350   10.8960 C.2    78  ASN78       0.2266
     39  O         18.9010   38.4090   10.5580 O.2    78  ASN78      -0.2867
     40  CB        19.9380   40.9010    9.9460 C.3    78  ASN78       0.1155
     41  CG        19.5020   41.5660   11.1990 C.2    78  ASN78       0.2627
     42  OD1       19.5020   40.9960   12.2990 O.2    78  ASN78      -0.2716
     43  ND2       19.0180   42.7720   11.1050 N.am   78  ASN78      -0.0877
     44  N         18.7830   38.4620   13.8330 N.3    80  ALA80      -0.1231
     45  CA        17.7590   38.9670   14.7120 C.3    80  ALA80       0.1694
     46  C         17.8110   38.2270   16.0300 C.2    80  ALA80       0.2591
     47  O         18.9580   37.9810   16.4770 O.2    80  ALA80      -0.2718
     48  CB        16.3250   38.9380   14.1380 C.3    80  ALA80       0.0304
     49  N         16.7460   37.8420   16.6790 N.am   81  ALA81      -0.1980
     50  CA        16.8540   37.1780   17.9750 C.3    81  ALA81       0.1597
     51  C         17.7290   35.9530   17.9640 C.2    81  ALA81       0.2287
     52  O         18.2940   35.6160   19.0320 O.2    81  ALA81      -0.2864
     53  CB        15.4840   36.8460   18.5180 C.3    81  ALA81       0.0319
     54  N         21.4520   35.6850   19.3390 N.3    84  HIS84      -0.1241
     55  CA        21.7080   35.4660   20.7690 C.3    84  HIS84       0.1621
     56  C         21.4990   34.0700   21.2700 C.2    84  HIS84       0.2264
     57  O         21.8900   33.7090   22.3830 O.2    84  HIS84      -0.2867
     58  CB        20.8440   36.4920   21.5710 C.3    84  HIS84       0.0745
     59  CG        20.9470   37.8660   20.9860 C.ar   84  HIS84       0.0817
     60  ND1       22.1330   38.5340   20.7780 N.ar   84  HIS84      -0.2268
     61  CD2       19.9470   38.6400   20.4080 C.ar   84  HIS84       0.1154
     62  CE1       21.8470   39.6450   20.1200 C.ar   84  HIS84       0.1986
     63  NE2       20.5620   39.7670   19.9020 N.ar   84  HIS84      -0.2212
     64  N         23.4490   44.0470   12.2960 N.3   105  HIS105     -0.1226
     65  CA        22.4190   44.4300   13.2220 C.3   105  HIS105      0.1752
     66  C         22.0810   45.9120   12.9410 C.2   105  HIS105      0.2596
     67  O         23.0040   46.7130   12.8710 O.2   105  HIS105     -0.2718
     68  CB        22.8110   44.3160   14.6910 C.3   105  HIS105      0.0759
     69  CG        23.2790   42.9380   15.0060 C.ar  105  HIS105      0.0818
     70  ND1       22.3670   41.9590   15.2100 N.ar  105  HIS105     -0.2268
     71  CD2       24.5080   42.3710   15.0920 C.ar  105  HIS105      0.1154
     72  CE1       22.9850   40.8060   15.4720 C.ar  105  HIS105      0.1986
     73  NE2       24.2730   41.0350   15.3640 N.ar  105  HIS105     -0.2212
     74  N         20.8090   46.1960   12.6860 N.am  106  ILE106     -0.1966
     75  CA        20.3460   47.5590   12.4190 C.3   106  ILE106      0.1727
     76  C         20.6180   48.4240   13.6520 C.2   106  ILE106      0.2616
     77  O         21.1780   49.5300   13.5820 O.2   106  ILE106     -0.2715
     78  CB        18.8550   47.5030   12.0640 C.3   106  ILE106      0.0290
     79  CG1       18.6750   46.7200   10.7340 C.3   106  ILE106      0.0022
     80  CG2       18.3010   48.9280   11.9880 C.3   106  ILE106      0.0023
     81  CD1       17.2360   46.2980   10.4780 C.3   106  ILE106      0.0001
     82  N         20.2270   47.8830   14.8180 N.am  107  SER107     -0.1950
     83  CA        20.4610   48.5340   16.0970 C.3   107  SER107      0.1924
     84  C         21.8390   48.2650   16.6880 C.2   107  SER107      0.2314
     85  O         22.5690   47.3330   16.3510 O.2   107  SER107     -0.2863
     86  CB        19.4530   48.0510   17.1210 C.3   107  SER107      0.2116
     87  OG        19.6340   46.7630   17.6620 O.3   107  SER107     -0.2180
     88  N         23.3350   46.7830   19.3020 N.3   109  ILE109     -0.1245
     89  CA        23.0350   45.7760   20.3330 C.3   109  ILE109      0.1561
     90  C         23.8170   45.9970   21.5970 C.2   109  ILE109      0.2260
     91  O         23.2430   45.7010   22.6680 O.2   109  ILE109     -0.2867
     92  CB        23.2310   44.3310   19.8200 C.3   109  ILE109      0.0252
     93  CG1       24.6560   44.0970   19.2960 C.3   109  ILE109      0.0019
     94  CG2       22.1210   44.0630   18.8190 C.3   109  ILE109      0.0019
     95  CD1       25.0240   42.6680   18.9270 C.3   109  ILE109      0.0001
     96  N         21.9100   47.9620   24.2350 N.3   112  ARG112     -0.1245
     97  CA        20.6260   47.3690   24.6430 C.3   112  ARG112      0.1563
     98  C         20.7610   46.4030   25.7760 C.2   112  ARG112      0.2260
     99  O         21.7340   46.4240   26.5430 O.2   112  ARG112     -0.2867
    100  CB        20.0020   46.8030   23.3400 C.3   112  ARG112      0.0307
    101  CG        19.9080   47.9250   22.2990 C.3   112  ARG112      0.0489
    102  CD        19.2390   47.4100   21.0240 C.3   112  ARG112      0.2205
    103  NE        17.8310   47.1700   21.2930 N.pl3 112  ARG112     -0.0865
    104  CZ        17.0410   46.4610   20.5000 C.cat 112  ARG112      0.5346
    105  NH1       17.4810   45.9130   19.3540 N.pl3 112  ARG112      0.1354
    106  NH2       15.7800   46.3040   20.8210 N.pl3 112  ARG112      0.1354
    107  N         21.3020   40.8640   24.6250 N.3   116  ARG116     -0.1245
    108  CA        21.6410   41.1310   23.2440 C.3   116  ARG116      0.1563
    109  C         23.1310   41.3090   23.0240 C.2   116  ARG116      0.2260
    110  O         23.6130   41.4550   21.8670 O.2   116  ARG116     -0.2867
    111  CB        20.9020   42.3870   22.7510 C.3   116  ARG116      0.0307
    112  CG        19.3810   42.2360   22.8010 C.3   116  ARG116      0.0489
    113  CD        18.6470   43.3720   22.0700 C.3   116  ARG116      0.2205
    114  NE        17.2280   43.3030   22.4220 N.pl3 116  ARG116     -0.0865
    115  CZ        16.3120   42.5150   21.9200 C.cat 116  ARG116      0.5346
    116  NH1       16.5790   41.6600   20.9590 N.pl3 116  ARG116      0.1354
    117  NH2       15.0840   42.5900   22.4160 N.pl3 116  ARG116      0.1354
@<TRIPOS>BOND
     1    19    18    2
     2    36    37    1
     3    18    17    1
     4    40    37    1
     5    40    41    1
     6    20    17    1
     7    20    21    1
     8    37    38    1
     9    81    79    1
    10    39    38    2
    11    17    16    1
    12    22    21    1
    13    79    78    1
    14    43    41   am
    15    21    23    1
    16    41    42    2
    17    27    26    2
    18    16    10   am
    19    80    78    1
    20    78    75    1
    21    64    65    1
    22    11    10    2
    23    10     9    1
    24    26    25    1
    25    75    74    1
    26    75    76    1
    27     1     2    1
    28     1     7    1
    29    74    66   am
    30    67    66    2
    31    66    65    1
    32     8     9    1
    33     8     3   am
    34     2     3    1
    35     2     5    1
    36    65    68    1
    37     9    12    1
    38     3     4    2
    39     7     6    1
    40    77    76    2
    41    28    25    1
    42    28    29    1
    43    76    82   am
    44    25    24    1
    45    44    45    1
    46    48    45    1
    47    31    29   ar
    48    31    33   ar
    49     5     6    1
    50    29    30   ar
    51    68    69    1
    52    45    46    1
    53    12    13    1
    54    82    83    1
    55    69    71   ar
    56    69    70   ar
    57    33    34   ar
    58    71    73   ar
    59    70    72   ar
    60    73    72   ar
    61    30    32   ar
    62    13    14    2
    63    13    15   am
    64    46    47    2
    65    46    49   am
    66    83    84    1
    67    83    86    1
    68    34    32   ar
    69    34    35    1
    70    85    84    2
    71    49    50    1
    72    86    87    1
    73    51    50    1
    74    51    52    2
    75    50    53    1
    76    94    92    1
    77    95    93    1
    78    93    92    1
    79    88    89    1
    80    54    55    1
    81   105   104    1
    82    92    89    1
    83    63    62   ar
    84    63    61   ar
    85    62    60   ar
    86    89    90    1
    87    61    59   ar
    88   104   106    1
    89   104   103    2
    90    55    56    1
    91    55    58    1
    92    60    59   ar
    93   116   115    1
    94    59    58    1
    95   102   103    1
    96   102   101    1
    97    56    57    2
    98    90    91    2
    99   110   109    2
   100   115   117    1
   101   115   114    2
   102   113   114    1
   103   113   112    1
   104   101   100    1
   105   111   112    1
   106   111   108    1
   107   109   108    1
   108   108   107    1
   109   100    97    1
   110    96    97    1
   111    97    98    1
   112    98    99    2
