@<TRIPOS>MOLECULE
tmp/1gu3A00.pdb
 147 141 0 0 0
SMALL
GASTEIGER

@<TRIPOS>ATOM
      1  N        -28.9780   34.4390   10.9060 N.3     6  PRO6       -0.2116
      2  CA       -27.7410   34.8330   11.5750 C.3     6  PRO6        0.1372
      3  C        -26.8090   35.7050   10.7120 C.2     6  PRO6        0.2244
      4  O        -26.0860   36.5640   11.2660 O.2     6  PRO6       -0.2868
      5  CB       -27.1050   33.4980   11.9800 C.3     6  PRO6        0.0268
      6  CG       -27.8020   32.4290   11.1550 C.3     6  PRO6        0.0207
      7  CD       -29.1080   32.9780   10.7770 C.3     6  PRO6        0.0892
      8  N        -23.8250   35.5530    9.1590 N.3     8  GLY8       -0.1210
      9  CA       -22.4810   35.6850    9.7020 C.3     8  GLY8        0.1956
     10  C        -22.3280   35.1730   11.1200 C.2     8  GLY8        0.2612
     11  O        -21.3490   34.5250   11.3940 O.2     8  GLY8       -0.2717
     12  N        -23.2950   35.4630   11.9960 N.am    9  TRP9       -0.1962
     13  CA       -23.3420   34.9640   13.3970 C.3     9  TRP9        0.1771
     14  C        -23.3790   33.4100   13.4970 C.2     9  TRP9        0.2619
     15  O        -24.0020   32.7180   12.6930 O.2     9  TRP9       -0.2715
     16  CB       -24.5650   35.5400   14.1250 C.3     9  TRP9        0.0590
     17  CG       -24.4220   36.9980   14.4500 C.ar    9  TRP9        0.0006
     18  CD1      -24.8250   38.0620   13.6790 C.ar    9  TRP9        0.0946
     19  CD2      -23.8510   37.5630   15.6410 C.ar    9  TRP9        0.0152
     20  NE1      -24.5300   39.2370   14.3230 N.ar    9  TRP9       -0.2442
     21  CE2      -23.9090   38.9650   15.5110 C.ar    9  TRP9        0.0810
     22  CE3      -23.2800   37.0200   16.8000 C.ar    9  TRP9        0.0012
     23  CZ2      -23.4300   39.8440   16.5080 C.ar    9  TRP9        0.0191
     24  CZ3      -22.8060   37.8820   17.7960 C.ar    9  TRP9        0.0001
     25  CH2      -22.8850   39.2800   17.6430 C.ar    9  TRP9        0.0015
     26  N        -22.7000   32.8630   14.4850 N.am   10  VAL10      -0.1963
     27  CA       -22.7090   31.4120   14.6620 C.3    10  VAL10       0.1727
     28  C        -22.8020   31.2240   16.1520 C.2    10  VAL10       0.2616
     29  O        -22.4650   32.1340   16.8990 O.2    10  VAL10      -0.2715
     30  CB       -21.3800   30.7420   14.1560 C.3    10  VAL10       0.0290
     31  CG1      -21.1960   30.8370   12.6240 C.3    10  VAL10       0.0023
     32  CG2      -20.1500   31.3400   14.8820 C.3    10  VAL10       0.0023
     33  N        -23.1990   30.0350   16.5720 N.am   11  ALA11      -0.1963
     34  CA       -23.1930   29.6380   17.9610 C.3    11  ALA11       0.1728
     35  C        -22.4220   28.3290   18.1380 C.2    11  ALA11       0.2616
     36  O        -22.1740   27.5980   17.1590 O.2    11  ALA11      -0.2715
     37  CB       -24.6420   29.4740   18.4510 C.3    11  ALA11       0.0334
     38  N        -22.0270   28.0260   19.3740 N.am   12  TYR12      -0.1974
     39  CA       -21.3620   26.7580   19.6750 C.3    12  TYR12       0.1639
     40  C        -21.7000   26.2740   21.0830 C.2    12  TYR12       0.2290
     41  O        -21.9730   27.0950   21.9680 O.2    12  TYR12      -0.2864
     42  CB       -19.8620   26.9050   19.4930 C.3    12  TYR12       0.0560
     43  CG       -19.1710   27.7770   20.5310 C.ar   12  TYR12      -0.0198
     44  CD1      -19.1670   29.1770   20.4140 C.ar   12  TYR12      -0.0009
     45  CD2      -18.5470   27.2050   21.6450 C.ar   12  TYR12      -0.0009
     46  CE1      -18.5440   29.9840   21.3930 C.ar   12  TYR12       0.0417
     47  CE2      -17.9040   28.0080   22.6200 C.ar   12  TYR12       0.0417
     48  CZ       -17.9180   29.3910   22.4900 C.ar   12  TYR12       0.1957
     49  OH       -17.3180   30.1910   23.4570 O.3    12  TYR12      -0.2866
     50  N        -16.7550   29.3060   29.0840 N.3    36  TYR36      -0.1241
     51  CA       -16.2110   29.3940   27.7300 C.3    36  TYR36       0.1605
     52  C        -16.6720   28.3620   26.7290 C.2    36  TYR36       0.2264
     53  O        -16.1650   28.3120   25.6020 O.2    36  TYR36      -0.2867
     54  CB       -14.6800   29.4750   27.7370 C.3    36  TYR36       0.0534
     55  CG       -14.0980   30.3230   28.8320 C.ar   36  TYR36      -0.0201
     56  CD1      -14.4520   31.6850   28.9750 C.ar   36  TYR36      -0.0009
     57  CD2      -13.1750   29.7770   29.7250 C.ar   36  TYR36      -0.0009
     58  CE1      -13.9010   32.4720   29.9950 C.ar   36  TYR36       0.0417
     59  CE2      -12.6200   30.5370   30.7390 C.ar   36  TYR36       0.0417
     60  CZ       -12.9730   31.8750   30.8700 C.ar   36  TYR36       0.1957
     61  OH       -12.3960   32.6010   31.8810 O.3    36  TYR36      -0.2866
     62  N        -21.5780   34.3670   18.5880 N.3    41  VAL41      -0.1245
     63  CA       -20.3120   34.9540   18.1690 C.3    41  VAL41       0.1561
     64  C        -20.3700   35.4700   16.7180 C.2    41  VAL41       0.2260
     65  O        -20.9400   34.8290   15.8160 O.2    41  VAL41      -0.2867
     66  CB       -19.2250   33.8610   18.3170 C.3    41  VAL41       0.0252
     67  CG1      -17.9500   34.2990   17.7560 C.3    41  VAL41       0.0019
     68  CG2      -19.0900   33.4700   19.7830 C.3    41  VAL41       0.0019
     69  N        -17.4300   36.5770   14.1930 N.3    43  ASN43      -0.1240
     70  CA       -16.0450   36.8070   13.8170 C.3    43  ASN43       0.1653
     71  C        -15.8790   37.7700   12.6330 C.2    43  ASN43       0.2266
     72  O        -16.8800   38.1190   12.0120 O.2    43  ASN43      -0.2867
     73  CB       -15.3840   35.4650   13.6120 C.3    43  ASN43       0.1155
     74  CG       -15.3530   34.6930   14.9070 C.2    43  ASN43       0.2627
     75  OD1      -14.8560   35.2090   15.9010 O.2    43  ASN43      -0.2716
     76  ND2      -15.9190   33.4740   14.9240 N.am   43  ASN43      -0.0877
     77  N        -21.4050   37.0250   29.9040 N.3    68  ARG68      -0.1245
     78  CA       -20.2880   37.8440   29.5030 C.3    68  ARG68       0.1563
     79  C        -20.5110   38.3040   28.0690 C.2    68  ARG68       0.2260
     80  O        -20.6850   37.4930   27.1570 O.2    68  ARG68      -0.2867
     81  CB       -19.0100   37.0580   29.6110 C.3    68  ARG68       0.0307
     82  CG       -17.6930   37.8320   29.5140 C.3    68  ARG68       0.0489
     83  CD       -16.4650   36.9050   29.4410 C.3    68  ARG68       0.2205
     84  NE       -15.1620   37.5940   29.3000 N.pl3  68  ARG68      -0.0865
     85  CZ       -14.0580   36.9990   28.7960 C.cat  68  ARG68       0.5346
     86  NH1      -14.0960   35.7170   28.3630 N.pl3  68  ARG68       0.1354
     87  NH2      -12.9270   37.6880   28.6880 N.pl3  68  ARG68       0.1354
     88  N        -18.5730   40.5090   25.1890 N.3    70  LEU70      -0.1245
     89  CA       -17.2300   41.0610   24.9020 C.3    70  LEU70       0.1561
     90  C        -16.9550   41.3650   23.4470 C.2    70  LEU70       0.2260
     91  O        -17.6500   40.8490   22.5480 O.2    70  LEU70      -0.2867
     92  CB       -16.1020   40.1760   25.4570 C.3    70  LEU70       0.0270
     93  CG       -15.9130   38.7950   24.8070 C.3    70  LEU70       0.0019
     94  CD1      -14.8530   38.7940   23.6780 C.3    70  LEU70       0.0001
     95  CD2      -15.5150   37.7930   25.8530 C.3    70  LEU70       0.0001
     96  N        -10.1480   39.0840   20.8450 N.3    73  GLN73      -0.1231
     97  CA        -9.4890   38.1550   19.9430 C.3    73  GLN73       0.1698
     98  C        -10.1700   36.7960   19.8360 C.2    73  GLN73       0.2592
     99  O        -10.4480   36.1350   20.8410 O.2    73  GLN73      -0.2718
    100  CB        -8.0490   37.9720   20.3730 C.3    73  GLN73       0.0381
    101  CG        -7.1460   39.1460   19.9980 C.3    73  GLN73       0.0905
    102  CD        -5.8380   39.1360   20.7150 C.2    73  GLN73       0.2608
    103  OE1       -5.7750   38.8870   21.9170 O.2    73  GLN73      -0.2717
    104  NE2       -4.7610   39.4150   19.9800 N.am   73  GLN73      -0.0878
    105  N        -10.4830   36.4180   18.5980 N.am   74  ASN74      -0.1974
    106  CA       -10.8890   35.0610   18.2500 C.3    74  ASN74       0.1688
    107  C         -9.6970   34.1510   18.1490 C.2    74  ASN74       0.2292
    108  O         -9.3450   33.7100   17.0800 O.2    74  ASN74      -0.2864
    109  CB       -11.6190   35.0170   16.9160 C.3    74  ASN74       0.1181
    110  CG       -12.1760   33.6670   16.6520 C.2    74  ASN74       0.2629
    111  OD1      -12.4950   32.9380   17.5900 O.2    74  ASN74      -0.2716
    112  ND2      -12.3050   33.3030   15.3770 N.am   74  ASN74      -0.0877
    113  N         -6.6590   35.5230   23.4350 N.3    78  TYR78      -0.1241
    114  CA        -8.0490   35.9610   23.7560 C.3    78  TYR78       0.1605
    115  C         -8.1580   37.2530   24.5230 C.2    78  TYR78       0.2264
    116  O         -9.0430   37.3700   25.3870 O.2    78  TYR78      -0.2867
    117  CB        -8.8000   34.8830   24.5420 C.3    78  TYR78       0.0534
    118  CG        -8.6950   33.5000   23.9250 C.ar   78  TYR78      -0.0201
    119  CD1       -9.4330   33.1840   22.7990 C.ar   78  TYR78      -0.0009
    120  CD2       -7.8370   32.5500   24.4450 C.ar   78  TYR78      -0.0009
    121  CE1       -9.3460   31.9350   22.1910 C.ar   78  TYR78       0.0417
    122  CE2       -7.7230   31.2770   23.8460 C.ar   78  TYR78       0.0417
    123  CZ        -8.5030   30.9850   22.7110 C.ar   78  TYR78       0.1957
    124  OH        -8.4660   29.7550   22.0840 O.3    78  TYR78      -0.2866
    125  N        -13.7340   39.7280   17.2250 N.3   117  GLN117     -0.1245
    126  CA       -15.0940   39.1910   17.2480 C.3   117  GLN117      0.1566
    127  C        -15.9120   39.9070   18.3110 C.2   117  GLN117      0.2260
    128  O        -15.3340   40.4840   19.2410 O.2   117  GLN117     -0.2867
    129  CB       -15.0850   37.6960   17.5900 C.3   117  GLN117      0.0367
    130  CG       -14.5800   37.4150   19.0500 C.3   117  GLN117      0.0905
    131  CD       -14.5930   35.9520   19.4930 C.2   117  GLN117      0.2608
    132  OE1      -14.4520   35.6840   20.6850 O.2   117  GLN117     -0.2717
    133  NE2      -14.7810   35.0190   18.5590 N.am  117  GLN117     -0.0878
    134  N        -18.5360   38.7080   21.1380 N.3   119  ALA119     -0.1245
    135  CA       -18.9210   37.4250   21.7570 C.3   119  ALA119      0.1562
    136  C        -19.8010   37.5450   22.9830 C.2   119  ALA119      0.2260
    137  O        -19.5400   38.3510   23.8430 O.2   119  ALA119     -0.2867
    138  CB       -17.6850   36.5220   22.0550 C.3   119  ALA119      0.0290
    139  N        -20.6720   34.9250   25.6740 N.3   121  GLN121     -0.1245
    140  CA       -20.4150   33.6100   26.2390 C.3   121  GLN121      0.1566
    141  C        -21.3790   33.4770   27.3780 C.2   121  GLN121      0.2260
    142  O        -21.6380   34.4480   28.1300 O.2   121  GLN121     -0.2867
    143  CB       -18.9860   33.4890   26.7430 C.3   121  GLN121      0.0367
    144  CG       -17.9590   34.3700   26.0080 C.3   121  GLN121      0.0905
    145  CD       -16.5650   34.0110   26.4130 C.2   121  GLN121      0.2608
    146  OE1      -16.2650   33.9980   27.5990 O.2   121  GLN121     -0.2717
    147  NE2      -15.7070   33.7090   25.4410 N.am  121  GLN121     -0.0878
@<TRIPOS>BOND
     1     8     9    1
     2     9    10    1
     3     3     4    2
     4     3     2    1
     5     7     1    1
     6     7     6    1
     7     1     2    1
     8    10    11    2
     9    10    12   am
    10     6     5    1
    11     2     5    1
    12    12    13    1
    13    72    71    2
    14    31    30    1
    15    71    70    1
    16    15    14    2
    17    13    14    1
    18    13    16    1
    19    14    26   am
    20    73    70    1
    21    73    74    1
    22    18    20   ar
    23    18    17   ar
    24    70    69    1
    25    16    17    1
    26    30    27    1
    27    30    32    1
    28    20    21   ar
    29    17    19   ar
    30    26    27    1
    31    27    28    1
    32    74    76   am
    33    74    75    2
    34   112   110   am
    35    21    19   ar
    36    21    23   ar
    37    19    22   ar
    38    65    64    2
    39    28    33   am
    40    28    29    2
    41    23    25   ar
    42    33    34    1
    43   110   109    1
    44   110   111    2
    45    64    63    1
    46    22    24   ar
    47   109   106    1
    48   108   107    2
    49    36    35    2
    50   125   126    1
    51   126   129    1
    52   126   127    1
    53   129   130    1
    54    25    24   ar
    55    67    66    1
    56    34    35    1
    57    34    37    1
    58    35    38   am
    59   107   106    1
    60    63    66    1
    61    63    62    1
    62   106   105    1
    63   127   128    2
    64    66    68    1
    65   133   131   am
    66   105    98   am
    67   130   131    1
    68    38    39    1
    69    42    39    1
    70    42    43    1
    71   131   132    2
    72    39    40    1
    73    98    97    1
    74    98    99    2
    75    97   100    1
    76    97    96    1
    77   104   102   am
    78   101   100    1
    79   101   102    1
    80    44    43   ar
    81    44    46   ar
    82    43    45   ar
    83   102   103    2
    84    40    41    2
    85   134   135    1
    86    46    48   ar
    87    45    47   ar
    88   135   138    1
    89   135   136    1
    90   124   123    1
    91   121   123   ar
    92   121   119   ar
    93    48    47   ar
    94    48    49    1
    95    91    90    2
    96   123   122   ar
    97   119   118   ar
    98   136   137    2
    99   113   114    1
   100    90    89    1
   101    94    93    1
   102   114   115    1
   103   114   117    1
   104   122   120   ar
   105   118   120   ar
   106   118   117    1
   107   115   116    2
   108    93    92    1
   109    93    95    1
   110    89    88    1
   111    89    92    1
   112   147   145   am
   113    53    52    2
   114   139   140    1
   115   144   145    1
   116   144   143    1
   117   140   143    1
   118   140   141    1
   119   145   146    2
   120    52    51    1
   121    80    79    2
   122   141   142    2
   123    51    54    1
   124    51    50    1
   125    54    55    1
   126    79    78    1
   127    86    85    1
   128    87    85    1
   129    85    84    2
   130    55    56   ar
   131    55    57   ar
   132    56    58   ar
   133    84    83    1
   134    83    82    1
   135    78    81    1
   136    78    77    1
   137    82    81    1
   138    57    59   ar
   139    58    60   ar
   140    59    60   ar
   141    60    61    1
