@<TRIPOS>MOLECULE
tmp/1guaA00.pdb
 187 183 0 0 0
SMALL
GASTEIGER

@<TRIPOS>ATOM
      1  N          4.3210   31.0230   30.1300 N.3    12  GLY12      -0.1210
      2  CA         2.9360   30.7740   30.4650 C.3    12  GLY12       0.1956
      3  C          1.9120   31.0120   29.3850 C.2    12  GLY12       0.2612
      4  O          2.0400   31.9500   28.6070 O.2    12  GLY12      -0.2717
      5  N          0.9190   30.1230   29.3340 N.am   13  GLY13      -0.1942
      6  CA        -0.1890   30.2090   28.4070 C.3    13  GLY13       0.2014
      7  C          0.0690   29.8160   26.9670 C.2    13  GLY13       0.2639
      8  O         -0.7950   30.0190   26.1080 O.2    13  GLY13      -0.2714
      9  N          1.2430   29.2720   26.6830 N.am   14  VAL14      -0.1963
     10  CA         1.5790   28.8970   25.3220 C.3    14  VAL14       0.1727
     11  C          0.9300   27.5900   24.8670 C.2    14  VAL14       0.2617
     12  O          0.8950   27.3100   23.6750 O.2    14  VAL14      -0.2715
     13  CB         3.1320   28.8180   25.1010 C.3    14  VAL14       0.0290
     14  CG1        3.7760   30.1620   25.3980 C.3    14  VAL14       0.0023
     15  CG2        3.7690   27.6940   25.9220 C.3    14  VAL14       0.0023
     16  N          0.4310   26.7990   25.8130 N.am   15  GLY15      -0.1940
     17  CA        -0.1920   25.5350   25.4810 C.3    15  GLY15       0.2014
     18  C          0.5790   24.2820   25.8770 C.2    15  GLY15       0.2639
     19  O          0.2560   23.2000   25.4040 O.2    15  GLY15      -0.2714
     20  N          1.5850   24.3860   26.7310 N.am   16  LYS16      -0.1963
     21  CA         2.3390   23.2020   27.1570 C.3    16  LYS16       0.1728
     22  C          1.4190   22.0780   27.6640 C.2    16  LYS16       0.2617
     23  O          1.5620   20.9250   27.2560 O.2    16  LYS16      -0.2715
     24  CB         3.3450   23.5530   28.2600 C.3    16  LYS16       0.0311
     25  CG         4.5050   24.4420   27.8240 C.3    16  LYS16       0.0038
     26  CD         5.4930   24.7390   28.9580 C.3    16  LYS16       0.0206
     27  CE         4.8640   25.5270   30.0580 C.3    16  LYS16       0.1093
     28  NZ         4.0980   26.6800   29.5710 N.3    16  LYS16      -0.1314
     29  N          0.4970   22.4170   28.5640 N.am   17  SER17      -0.1936
     30  CA        -0.4310   21.4410   29.1150 C.3    17  SER17       0.2055
     31  C         -1.4460   20.9580   28.0970 C.2    17  SER17       0.2642
     32  O         -1.8160   19.7810   28.0920 O.2    17  SER17      -0.2714
     33  CB        -1.1550   22.0000   30.3290 C.3    17  SER17       0.2130
     34  OG        -0.2470   22.2600   31.3640 O.3    17  SER17      -0.2179
     35  N         -1.9400   21.8720   27.2790 N.am   18  ALA18      -0.1977
     36  CA        -2.8990   21.5050   26.2560 C.3    18  ALA18       0.1597
     37  C         -2.3210   20.4980   25.2620 C.2    18  ALA18       0.2287
     38  O         -3.0410   19.6340   24.7720 O.2    18  ALA18      -0.2864
     39  CB        -3.3880   22.7220   25.5260 C.3    18  ALA18       0.0319
     40  N         -9.1280   18.0720   24.9140 N.3    28  PHE28      -0.1227
     41  CA        -8.6280   19.4360   24.6700 C.3    28  PHE28       0.1736
     42  C         -8.9840   20.2950   25.8720 C.2    28  PHE28       0.2595
     43  O        -10.1530   20.4590   26.1950 O.2    28  PHE28      -0.2718
     44  CB        -9.1970   20.0980   23.3980 C.3    28  PHE28       0.0547
     45  CG        -8.8080   21.5750   23.2500 C.ar   28  PHE28      -0.0202
     46  CD1       -7.4840   21.9450   23.1060 C.ar   28  PHE28      -0.0042
     47  CD2       -9.7590   22.5750   23.3230 C.ar   28  PHE28      -0.0042
     48  CE1       -7.1190   23.2570   23.0460 C.ar   28  PHE28      -0.0003
     49  CE2       -9.3890   23.9120   23.2620 C.ar   28  PHE28      -0.0003
     50  CZ        -8.0720   24.2530   23.1260 C.ar   28  PHE28      -0.0000
     51  N         -7.9750   20.8420   26.5310 N.am   29  VAL29      -0.1966
     52  CA        -8.1970   21.6730   27.6870 C.3    29  VAL29       0.1727
     53  C         -8.4100   23.0950   27.2100 C.2    29  VAL29       0.2616
     54  O         -7.4890   23.7560   26.7490 O.2    29  VAL29      -0.2715
     55  CB        -7.0090   21.5800   28.6600 C.3    29  VAL29       0.0290
     56  CG1       -7.2640   22.3850   29.9170 C.3    29  VAL29       0.0023
     57  CG2       -6.8090   20.1320   29.0590 C.3    29  VAL29       0.0023
     58  N         -9.6560   23.5310   27.2770 N.am   30  ASP30      -0.1957
     59  CA       -10.0320   24.8650   26.8610 C.3    30  ASP30       0.1840
     60  C         -9.7300   25.9590   27.8860 C.2    30  ASP30       0.2622
     61  O         -9.4530   27.0970   27.5140 O.2    30  ASP30      -0.2715
     62  CB       -11.5210   24.8960   26.4860 C.3    30  ASP30       0.1450
     63  CG       -12.4300   24.4160   27.6190 C.2    30  ASP30       0.3671
     64  OD1      -12.1110   23.4090   28.2690 O.co2  30  ASP30      -0.2456
     65  OD2      -13.4870   25.0470   27.8750 O.co2  30  ASP30      -0.2456
     66  N         -9.7850   25.6220   29.1670 N.am   31  GLU31      -0.1963
     67  CA        -9.5360   26.5870   30.2190 C.3    31  GLU31       0.1733
     68  C         -8.0530   26.8330   30.4170 C.2    31  GLU31       0.2616
     69  O         -7.2180   26.0080   30.0590 O.2    31  GLU31      -0.2715
     70  CB       -10.1680   26.1250   31.5410 C.3    31  GLU31       0.0429
     71  CG        -9.4770   24.9310   32.2310 C.3    31  GLU31       0.1163
     72  CD       -10.0690   23.5960   31.8700 C.2    31  GLU31       0.3649
     73  OE1      -10.7620   23.4960   30.8510 O.co2  31  GLU31      -0.2457
     74  OE2       -9.8540   22.6240   32.6110 O.co2  31  GLU31      -0.2457
     75  N         -7.7440   27.9790   31.0000 N.am   32  TYR32      -0.1960
     76  CA        -6.3830   28.3660   31.2810 C.3    32  TYR32       0.1771
     77  C         -6.1900   28.1620   32.7730 C.2    32  TYR32       0.2620
     78  O         -6.5500   29.0060   33.5930 O.2    32  TYR32      -0.2715
     79  CB        -6.1990   29.8330   30.9120 C.3    32  TYR32       0.0574
     80  CG        -4.7870   30.3700   30.9810 C.ar   32  TYR32      -0.0198
     81  CD1       -3.7510   29.6350   31.5430 C.ar   32  TYR32      -0.0009
     82  CD2       -4.5120   31.6620   30.5360 C.ar   32  TYR32      -0.0009
     83  CE1       -2.4790   30.1760   31.6730 C.ar   32  TYR32       0.0417
     84  CE2       -3.2560   32.2070   30.6590 C.ar   32  TYR32       0.0417
     85  CZ        -2.2540   31.4790   31.2260 C.ar   32  TYR32       0.1957
     86  OH        -1.0370   32.0880   31.3730 O.3    32  TYR32      -0.2866
     87  N         -5.6000   27.0320   33.1200 N.am   33  ASP33      -0.1958
     88  CA        -5.3740   26.6870   34.5050 C.3    33  ASP33       0.1825
     89  C         -3.8690   26.5390   34.6750 C.2    33  ASP33       0.2464
     90  O         -3.3100   25.4750   34.3910 O.2    33  ASP33      -0.2730
     91  CB        -6.0980   25.3720   34.7680 C.3    33  ASP33       0.1450
     92  CG        -6.1370   25.0010   36.2150 C.2    33  ASP33       0.3671
     93  OD1       -5.8800   25.8540   37.0900 O.co2  33  ASP33      -0.2456
     94  OD2       -6.4580   23.8340   36.4850 O.co2  33  ASP33      -0.2456
     95  N         -3.1900   27.6050   35.1410 N.am   34  PRO34      -0.2715
     96  CA        -1.7410   27.5490   35.3190 C.3    34  PRO34       0.1536
     97  C         -1.2140   26.3370   36.0850 C.2    34  PRO34       0.2599
     98  O         -1.7200   25.9750   37.1460 O.2    34  PRO34      -0.2715
     99  CB        -1.4310   28.8680   36.0080 C.3    34  PRO34       0.0310
    100  CG        -2.4450   29.7680   35.4310 C.3    34  PRO34       0.0237
    101  CD        -3.6930   28.9330   35.5140 C.3    34  PRO34       0.0939
    102  N         -0.1950   25.7080   35.5140 N.am   35  THR35      -0.1951
    103  CA         0.4290   24.5390   36.0890 C.3    35  THR35       0.1897
    104  C          1.3060   24.9200   37.2540 C.2    35  THR35       0.2313
    105  O          1.9180   25.9750   37.2700 O.2    35  THR35      -0.2863
    106  CB         1.3190   23.8410   35.0400 C.3    35  THR35       0.1794
    107  OG1        0.5140   23.3990   33.9510 O.3    35  THR35      -0.2208
    108  CG2        2.0460   22.6490   35.6130 C.3    35  THR35       0.0378
    109  N          5.6480   18.2630   32.7150 N.3    57  ASP57      -0.1225
    110  CA         5.0000   19.4740   32.2350 C.3    57  ASP57       0.1805
    111  C          5.3720   20.5460   33.2520 C.2    57  ASP57       0.2598
    112  O          5.0390   20.4400   34.4260 O.2    57  ASP57      -0.2718
    113  CB         3.4860   19.2170   32.2130 C.3    57  ASP57       0.1424
    114  CG         2.6770   20.3760   31.6690 C.2    57  ASP57       0.3668
    115  OD1        3.2510   21.3020   31.0620 O.co2  57  ASP57      -0.2456
    116  OD2        1.4400   20.3410   31.8630 O.co2  57  ASP57      -0.2456
    117  N          6.0890   21.5650   32.8220 N.am   58  THR58      -0.1953
    118  CA         6.5360   22.5990   33.7350 C.3    58  THR58       0.1897
    119  C          5.6490   23.8260   33.8600 C.2    58  THR58       0.2313
    120  O          4.7710   24.0550   33.0490 O.2    58  THR58      -0.2863
    121  CB         7.9280   23.0250   33.3770 C.3    58  THR58       0.1794
    122  OG1        7.9230   23.5450   32.0440 O.3    58  THR58      -0.2208
    123  CG2        8.8720   21.8490   33.4470 C.3    58  THR58       0.0378
    124  N          4.9480   27.5640   33.5580 N.3    60  GLY60      -0.1210
    125  CA         5.4900   28.6650   32.7970 C.3    60  GLY60       0.1956
    126  C          5.5520   29.9090   33.6400 C.2    60  GLY60       0.2612
    127  O          6.3070   30.8310   33.3550 O.2    60  GLY60      -0.2717
    128  N          4.7900   29.9140   34.7150 N.am   61  THR61      -0.1952
    129  CA         4.7400   31.0660   35.5910 C.3    61  THR61       0.1897
    130  C          5.0070   30.6750   37.0240 C.2    61  THR61       0.2313
    131  O          4.0730   30.3800   37.7550 O.2    61  THR61      -0.2863
    132  CB         3.3460   31.6880   35.5340 C.3    61  THR61       0.1794
    133  OG1        2.9940   31.9610   34.1650 O.3    61  THR61      -0.2208
    134  CG2        3.3170   32.9580   36.3050 C.3    61  THR61       0.0378
    135  N          3.1650   26.7030   18.8380 N.3   116  ASN116     -0.1225
    136  CA         1.8000   26.2850   19.0910 C.3   116  ASN116      0.1785
    137  C          0.7430   27.3400   18.7620 C.2   116  ASN116      0.2597
    138  O          1.0430   28.5180   18.6150 O.2   116  ASN116     -0.2718
    139  CB         1.6660   25.8330   20.5490 C.3   116  ASN116      0.1169
    140  CG         0.4750   24.9460   20.7660 C.2   116  ASN116      0.2627
    141  OD1        0.1750   24.1140   19.9440 O.2   116  ASN116     -0.2716
    142  ND2       -0.2110   25.1260   21.8600 N.am  116  ASN116     -0.0877
    143  N         -0.5050   26.8930   18.6870 N.am  117  LYS117     -0.1980
    144  CA        -1.6630   27.7230   18.3760 C.3   117  LYS117      0.1596
    145  C         -1.6500   28.1230   16.9210 C.2   117  LYS117      0.2287
    146  O         -2.1480   29.1840   16.5730 O.2   117  LYS117     -0.2864
    147  CB        -1.7600   28.9680   19.2700 C.3   117  LYS117      0.0298
    148  CG        -1.7090   28.6710   20.7710 C.3   117  LYS117      0.0038
    149  CD        -2.2100   29.8010   21.6600 C.3   117  LYS117      0.0206
    150  CE        -1.9780   29.4550   23.1260 C.3   117  LYS117      0.1093
    151  NZ        -2.6440   30.3940   24.0530 N.3   117  LYS117     -0.1314
    152  N         -3.5090   27.2150   14.7190 N.3   119  ASP119     -0.1225
    153  CA        -4.8820   27.3180   14.2750 C.3   119  ASP119      0.1805
    154  C         -5.3770   28.7710   14.3550 C.2   119  ASP119      0.2597
    155  O         -6.4430   29.0940   13.8400 O.2   119  ASP119     -0.2718
    156  CB        -5.8070   26.3920   15.0850 C.3   119  ASP119      0.1424
    157  CG        -5.8320   26.7100   16.5740 C.2   119  ASP119      0.3668
    158  OD1       -4.8160   26.5070   17.2390 O.co2 119  ASP119     -0.2456
    159  OD2       -6.8870   27.1300   17.0940 O.co2 119  ASP119     -0.2456
    160  N         -4.6260   29.6340   15.0340 N.am  120  LEU120     -0.1979
    161  CA        -4.9880   31.0430   15.1730 C.3   120  LEU120      0.1596
    162  C         -4.1340   31.8390   14.2010 C.2   120  LEU120      0.2287
    163  O         -3.4140   32.7620   14.5780 O.2   120  LEU120     -0.2864
    164  CB        -4.7450   31.5210   16.6020 C.3   120  LEU120      0.0297
    165  CG        -5.5600   30.7690   17.6530 C.3   120  LEU120      0.0022
    166  CD1       -5.2350   31.3160   19.0240 C.3   120  LEU120      0.0001
    167  CD2       -7.0440   30.8590   17.3670 C.3   120  LEU120      0.0001
    168  N         -0.9290   22.6000   16.9990 N.3   147  SER147     -0.1202
    169  CA        -2.2020   23.0380   17.5090 C.3   147  SER147      0.2020
    170  C         -2.7800   21.9350   18.3590 C.2   147  SER147      0.2619
    171  O         -3.0990   20.8730   17.8490 O.2   147  SER147     -0.2717
    172  CB        -3.1860   23.3360   16.3930 C.3   147  SER147      0.2103
    173  OG        -4.4160   23.7870   16.9390 O.3   147  SER147     -0.2182
    174  N         -2.9470   22.2060   19.6510 N.am  148  ALA148     -0.1965
    175  CA        -3.5430   21.2580   20.5970 C.3   148  ALA148      0.1728
    176  C         -5.0330   21.2000   20.3170 C.2   148  ALA148      0.2616
    177  O         -5.6820   20.1720   20.5200 O.2   148  ALA148     -0.2715
    178  CB        -3.3240   21.7240   22.0080 C.3   148  ALA148      0.0334
    179  N         -5.5770   22.3180   19.8460 N.am  149  LYS149     -0.1977
    180  CA        -6.9990   22.3950   19.5380 C.3   149  LYS149      0.1596
    181  C         -7.4540   21.6130   18.3000 C.2   149  LYS149      0.2287
    182  O         -8.4870   20.9420   18.3400 O.2   149  LYS149     -0.2864
    183  CB        -7.4410   23.8390   19.4100 C.3   149  LYS149      0.0298
    184  CG        -8.9300   23.9580   19.3160 C.3   149  LYS149      0.0038
    185  CD        -9.3580   25.3730   19.3480 C.3   149  LYS149      0.0206
    186  CE       -10.8430   25.4190   19.4890 C.3   149  LYS149      0.1093
    187  NZ       -11.3410   26.7370   19.0150 N.3   149  LYS149     -0.1314
@<TRIPOS>BOND
     1   155   154    2
     2   162   163    2
     3   162   161    1
     4   153   154    1
     5   153   152    1
     6   153   156    1
     7   154   160   am
     8   160   161    1
     9   156   157    1
    10   161   164    1
    11   172   173    1
    12   172   169    1
    13   146   145    2
    14   157   159   ar
    15   157   158   ar
    16   164   165    1
    17   145   144    1
    18   168   169    1
    19   167   165    1
    20   169   170    1
    21   165   166    1
    22   171   170    2
    23   181   182    2
    24   181   180    1
    25   170   174   am
    26   144   143    1
    27   144   147    1
    28   138   137    2
    29   143   137   am
    30   137   136    1
    31   135   136    1
    32   187   186    1
    33   136   139    1
    34   147   148    1
    35   184   185    1
    36   184   183    1
    37   185   186    1
    38   183   180    1
    39   180   179    1
    40   174   175    1
    41   179   176   am
    42   141   140    2
    43   176   177    2
    44   176   175    1
    45   139   140    1
    46   175   178    1
    47   140   142   am
    48   148   149    1
    49   149   150    1
    50    48    46   ar
    51    48    50   ar
    52    46    45   ar
    53   150   151    1
    54    50    49   ar
    55    45    47   ar
    56    45    44    1
    57    49    47   ar
    58    44    41    1
    59    12    11    2
    60    41    40    1
    61    41    42    1
    62    38    37    2
    63    11    10    1
    64    11    16   am
    65    13    10    1
    66    13    14    1
    67    13    15    1
    68    37    36    1
    69    10     9    1
    70    19    18    2
    71    17    16    1
    72    17    18    1
    73    39    36    1
    74    42    43    2
    75    42    51   am
    76    18    20   am
    77     8     7    2
    78    36    35    1
    79    62    59    1
    80    62    63    1
    81    51    52    1
    82     9     7   am
    83    20    21    1
    84    54    53    2
    85    59    58    1
    86    59    60    1
    87     7     6    1
    88    21    22    1
    89    21    24    1
    90    53    58   am
    91    53    52    1
    92    23    22    2
    93    35    31   am
    94    61    60    2
    95    63    65   ar
    96    63    64   ar
    97    22    29   am
    98    52    55    1
    99    25    24    1
   100    25    26    1
   101    60    66   am
   102    32    31    2
   103    31    30    1
   104     6     5    1
   105    29    30    1
   106     4     3    2
   107    55    57    1
   108    55    56    1
   109    26    27    1
   110    30    33    1
   111    66    67    1
   112     5     3   am
   113     3     2    1
   114    28    27    1
   115    69    68    2
   116     1     2    1
   117    67    68    1
   118    67    70    1
   119    33    34    1
   120    68    75   am
   121    82    84   ar
   122    82    80   ar
   123    84    85   ar
   124    73    72   ar
   125    79    80    1
   126    79    76    1
   127    80    81   ar
   128    75    76    1
   129   115   114   ar
   130    85    86    1
   131    85    83   ar
   132    76    77    1
   133    70    71    1
   134    81    83   ar
   135   114   116   ar
   136   114   113    1
   137    72    71    1
   138    72    74   ar
   139   122   121    1
   140   113   110    1
   141   110   109    1
   142   110   111    1
   143    77    87   am
   144    77    78    2
   145   125   124    1
   146   125   126    1
   147   117   111   am
   148   117   118    1
   149   120   119    2
   150    87    88    1
   151   111   112    2
   152   127   126    2
   153   121   123    1
   154   121   118    1
   155   126   128   am
   156   118   119    1
   157   107   106    1
   158   133   132    1
   159    90    89    2
   160    88    89    1
   161    88    91    1
   162    89    95   am
   163   128   129    1
   164    91    92    1
   165   106   108    1
   166   106   103    1
   167    95    96    1
   168    95   101    1
   169    96    99    1
   170    96    97    1
   171   100   101    1
   172   100    99    1
   173   102    97   am
   174   102   103    1
   175   132   129    1
   176   132   134    1
   177   129   130    1
   178    97    98    2
   179   103   104    1
   180    92    94   ar
   181    92    93   ar
   182   130   131    2
   183   104   105    2
