@<TRIPOS>MOLECULE
tmp/1guhC00.pdb
 170 163 0 0 0
SMALL
GASTEIGER

@<TRIPOS>ATOM
      1  N         61.3990    6.8270   72.8990 N.3     8  TYR8       -0.1227
      2  CA        62.0290    7.7990   73.7950 C.3     8  TYR8        0.1736
      3  C         61.5030    7.6170   75.2170 C.2     8  TYR8        0.2595
      4  O         60.7090    6.7040   75.4470 O.2     8  TYR8       -0.2718
      5  CB        61.7170    9.2090   73.3400 C.3     8  TYR8        0.0548
      6  CG        62.6560   10.2930   73.8610 C.ar    8  TYR8       -0.0200
      7  CD1       64.0110   10.2530   73.6040 C.ar    8  TYR8       -0.0009
      8  CD2       62.1370   11.3380   74.5890 C.ar    8  TYR8       -0.0009
      9  CE1       64.8350   11.2560   74.0710 C.ar    8  TYR8        0.0417
     10  CE2       62.9630   12.3340   75.0540 C.ar    8  TYR8        0.0417
     11  CZ        64.3000   12.2880   74.7920 C.ar    8  TYR8        0.1957
     12  OH        65.1010   13.2970   75.2590 O.3     8  TYR8       -0.2866
     13  N         61.9190    8.3860   76.2340 N.am    9  PHE9       -0.1976
     14  CA        61.3060    8.2270   77.5350 C.3     9  PHE9        0.1639
     15  C         60.1050    9.1560   77.6170 C.2     9  PHE9        0.2290
     16  O         59.8320    9.9220   76.6930 O.2     9  PHE9       -0.2864
     17  CB        62.3400    8.4920   78.6690 C.3     9  PHE9        0.0560
     18  CG        62.8740    9.8690   79.0120 C.ar    9  PHE9       -0.0200
     19  CD1       63.5870   10.6270   78.1110 C.ar    9  PHE9       -0.0042
     20  CD2       62.6760   10.3510   80.2820 C.ar    9  PHE9       -0.0042
     21  CE1       64.1090   11.8580   78.4870 C.ar    9  PHE9       -0.0003
     22  CE2       63.1990   11.5760   80.6520 C.ar    9  PHE9       -0.0003
     23  CZ        63.9200   12.3380   79.7590 C.ar    9  PHE9       -0.0000
     24  N         61.9350   16.5090   76.3490 N.3    13  GLY13      -0.1210
     25  CA        63.2510   16.1390   75.8360 C.3    13  GLY13       0.1956
     26  C         63.4960   16.5330   74.4010 C.2    13  GLY13       0.2611
     27  O         63.0910   17.6020   73.9430 O.2    13  GLY13      -0.2717
     28  N         64.1570   15.6230   73.6930 N.am   14  ARG14      -0.1979
     29  CA        64.4840   15.8480   72.2970 C.3    14  ARG14       0.1597
     30  C         63.4640   15.2680   71.3400 C.2    14  ARG14       0.2287
     31  O         63.6790   15.3370   70.1320 O.2    14  ARG14      -0.2864
     32  CB        65.8470   15.2460   71.9610 C.3    14  ARG14       0.0334
     33  CG        66.9550   15.9850   72.6620 C.3    14  ARG14       0.0492
     34  CD        68.2900   15.5590   72.1310 C.3    14  ARG14       0.2205
     35  NE        69.3150   16.0970   72.9940 N.pl3  14  ARG14      -0.0865
     36  CZ        69.8360   17.3140   72.8380 C.cat  14  ARG14       0.5346
     37  NH1       69.4460   18.1140   71.8580 N.pl3  14  ARG14       0.1354
     38  NH2       70.7270   17.7550   73.7190 N.pl3  14  ARG14       0.1354
     39  N         66.8070    0.8180   77.3660 N.3    40  LEU40      -0.1245
     40  CA        67.6720    1.4420   76.3730 C.3    40  LEU40       0.1561
     41  C         68.7460    0.4920   75.8720 C.2    40  LEU40       0.2260
     42  O         69.0260    0.4850   74.6730 O.2    40  LEU40      -0.2867
     43  CB        68.3270    2.6960   76.9630 C.3    40  LEU40       0.0270
     44  CG        69.2340    3.5790   76.1100 C.3    40  LEU40       0.0019
     45  CD1       68.5560    4.0600   74.8430 C.3    40  LEU40       0.0001
     46  CD2       69.6300    4.7550   76.9610 C.3    40  LEU40       0.0001
     47  N         69.6610   -0.9710   72.0430 N.3    44  ARG44      -0.1245
     48  CA        71.0030   -0.8760   71.4870 C.3    44  ARG44       0.1563
     49  C         71.4800   -2.1840   70.9100 C.2    44  ARG44       0.2260
     50  O         71.8820   -2.2640   69.7510 O.2    44  ARG44      -0.2867
     51  CB        72.0100   -0.4630   72.5380 C.3    44  ARG44       0.0307
     52  CG        71.8810    0.9870   72.8720 C.3    44  ARG44       0.0489
     53  CD        72.6350    1.3350   74.1250 C.3    44  ARG44       0.2205
     54  NE        72.4790    2.7570   74.3720 N.pl3  44  ARG44      -0.0865
     55  CZ        73.0660    3.3840   75.3880 C.cat  44  ARG44       0.5346
     56  NH1       73.8340    2.7400   76.2630 N.pl3  44  ARG44       0.1354
     57  NH2       72.9250    4.6990   75.5130 N.pl3  44  ARG44       0.1354
     58  N         73.8190    4.4530   69.1780 N.3    52  GLN52      -0.1231
     59  CA        73.4850    4.0960   70.5640 C.3    52  GLN52       0.1698
     60  C         72.5780    5.0720   71.2990 C.2    52  GLN52       0.2592
     61  O         72.3990    4.9620   72.5070 O.2    52  GLN52      -0.2718
     62  CB        74.7330    3.9330   71.4610 C.3    52  GLN52       0.0381
     63  CG        75.8530    2.9930   71.0640 C.3    52  GLN52       0.0905
     64  CD        75.4450    1.9790   70.0150 C.2    52  GLN52       0.2608
     65  OE1       74.7540    0.9910   70.2610 O.2    52  GLN52      -0.2717
     66  NE2       75.8570    2.2680   68.7930 N.am   52  GLN52      -0.0878
     67  N         71.9700    6.0280   70.6050 N.am   53  GLN53      -0.1966
     68  CA        71.1430    7.0400   71.2260 C.3    53  GLN53       0.1733
     69  C         69.6920    7.0450   70.7490 C.2    53  GLN53       0.2616
     70  O         69.3600    6.4230   69.7440 O.2    53  GLN53      -0.2715
     71  CB        71.7070    8.3980   70.9390 C.3    53  GLN53       0.0408
     72  CG        73.1210    8.6480   71.3700 C.3    53  GLN53       0.0908
     73  CD        73.5970   10.0070   70.9020 C.2    53  GLN53       0.2608
     74  OE1       73.5500   10.3690   69.7230 O.2    53  GLN53      -0.2717
     75  NE2       74.0720   10.8110   71.8440 N.am   53  GLN53      -0.0878
     76  N         68.8090    7.7200   71.4970 N.am   54  VAL54      -0.1964
     77  CA        67.4350    7.9990   71.0740 C.3    54  VAL54       0.1712
     78  C         67.2600    9.5340   71.0870 C.2    54  VAL54       0.2458
     79  O         68.0100   10.1620   71.8400 O.2    54  VAL54      -0.2730
     80  CB        66.3840    7.3420   72.0240 C.3    54  VAL54       0.0289
     81  CG1       66.3410    5.8420   71.7890 C.3    54  VAL54       0.0023
     82  CG2       66.7420    7.5840   73.4810 C.3    54  VAL54       0.0023
     83  N         66.3910   10.3020   70.3930 N.am   55  PRO55      -0.2727
     84  CA        65.2440    9.9070   69.5840 C.3    55  PRO55       0.1402
     85  C         65.4620    8.8150   68.5750 C.2    55  PRO55       0.2269
     86  O         66.5390    8.7840   67.9890 O.2    55  PRO55      -0.2865
     87  CB        64.8210   11.1440   68.8850 C.3    55  PRO55       0.0296
     88  CG        65.1890   12.2380   69.8380 C.3    55  PRO55       0.0237
     89  CD        66.5370   11.7540   70.3270 C.3    55  PRO55       0.0939
     90  N         67.4100    7.5560   63.1890 N.3    65  VAL65      -0.1231
     91  CA        67.8500    7.9440   64.4930 C.3    65  VAL65       0.1692
     92  C         68.1830    9.3840   64.7330 C.2    65  VAL65       0.2592
     93  O         67.9890    9.7170   65.8910 O.2    65  VAL65      -0.2718
     94  CB        69.0130    7.0160   64.8850 C.3    65  VAL65       0.0266
     95  CG1       70.3940    7.6190   64.8400 C.3    65  VAL65       0.0020
     96  CG2       68.6130    6.5390   66.2490 C.3    65  VAL65       0.0020
     97  N         68.5660   10.3330   63.8930 N.am   66  GLN66      -0.1966
     98  CA        68.9470   11.6160   64.5020 C.3    66  GLN66       0.1733
     99  C         67.8380   12.6990   64.6250 C.2    66  GLN66       0.2617
    100  O         67.1150   12.7850   63.6320 O.2    66  GLN66      -0.2715
    101  CB        70.0960   12.1000   63.6770 C.3    66  GLN66       0.0408
    102  CG        70.9640   12.9990   64.4800 C.3    66  GLN66       0.0908
    103  CD        72.0710   12.2900   65.1950 C.2    66  GLN66       0.2608
    104  OE1       72.7410   12.8920   66.0190 O.2    66  GLN66      -0.2717
    105  NE2       72.3430   11.0200   64.9610 N.am   66  GLN66      -0.0878
    106  N         67.5840   13.5840   65.6320 N.am   67  THR67      -0.1951
    107  CA        66.4930   14.5830   65.6200 C.3    67  THR67       0.1897
    108  C         66.3280   15.2740   64.2820 C.2    67  THR67       0.2313
    109  O         65.2600   15.1790   63.6780 O.2    67  THR67      -0.2863
    110  CB        66.6930   15.7190   66.6540 C.3    67  THR67       0.1794
    111  OG1       66.5460   15.0840   67.8930 O.3    67  THR67      -0.2208
    112  CG2       65.6860   16.8400   66.6520 C.3    67  THR67       0.0378
    113  N         66.1730   23.8300   76.6320 N.3   106  LEU106     -0.1231
    114  CA        66.0940   22.3920   76.8780 C.3   106  LEU106      0.1693
    115  C         67.0350   21.9450   77.9680 C.2   106  LEU106      0.2591
    116  O         66.6590   21.1580   78.8330 O.2   106  LEU106     -0.2718
    117  CB        66.4440   21.5800   75.6250 C.3   106  LEU106      0.0284
    118  CG        66.5320   20.0520   75.7170 C.3   106  LEU106      0.0019
    119  CD1       65.1330   19.5260   75.8670 C.3   106  LEU106      0.0001
    120  CD2       67.1260   19.4240   74.4680 C.3   106  LEU106      0.0001
    121  N         68.2590   22.4570   77.9370 N.am  107  LEU107     -0.1980
    122  CA        69.2610   22.0140   78.8770 C.3   107  LEU107      0.1596
    123  C         69.3220   22.7970   80.1610 C.2   107  LEU107      0.2287
    124  O         70.0770   22.4130   81.0530 O.2   107  LEU107     -0.2864
    125  CB        70.6040   22.0550   78.2020 C.3   107  LEU107      0.0297
    126  CG        70.7480   21.0690   77.0650 C.3   107  LEU107      0.0022
    127  CD1       72.0020   21.4370   76.2980 C.3   107  LEU107      0.0001
    128  CD2       70.7500   19.6280   77.5930 C.3   107  LEU107      0.0001
    129  N         69.3510   21.0540   83.6060 N.3   110  VAL110     -0.1245
    130  CA        70.5120   20.2500   83.9170 C.3   110  VAL110      0.1561
    131  C         71.6490   21.1910   84.3070 C.2   110  VAL110      0.2260
    132  O         72.7040   20.7170   84.7230 O.2   110  VAL110     -0.2867
    133  CB        70.8650   19.3820   82.6680 C.3   110  VAL110      0.0252
    134  CG1       71.8690   18.3240   83.0520 C.3   110  VAL110      0.0019
    135  CG2       69.6520   18.6170   82.1530 C.3   110  VAL110      0.0019
    136  N         59.8740   19.5790   82.4730 N.3   207  MET207     -0.1245
    137  CA        60.6990   18.6280   83.2150 C.3   207  MET207      0.1570
    138  C         60.6820   18.9930   84.6700 C.2   207  MET207      0.2261
    139  O         60.9690   20.1420   85.0060 O.2   207  MET207     -0.2867
    140  CB        62.1660   18.6550   82.8630 C.3   207  MET207      0.0387
    141  CG        62.5270   17.8690   81.6530 C.3   207  MET207      0.0595
    142  SD        63.3930   16.3370   82.0280 S.3   207  MET207     -0.1393
    143  CE        65.0320   16.9980   82.0400 C.3   207  MET207      0.0692
    144  N         65.6780   10.5950   83.8770 N.3   215  ALA215     -0.1245
    145  CA        66.4830   10.8500   82.6940 C.3   215  ALA215      0.1562
    146  C         67.9530   10.5530   82.9560 C.2   215  ALA215      0.2260
    147  O         68.6330    9.9590   82.1210 O.2   215  ALA215     -0.2867
    148  CB        66.3200   12.3080   82.2870 C.3   215  ALA215      0.0290
    149  N         69.7410    7.5200   80.9010 N.3   219  PHE219     -0.1241
    150  CA        70.8160    7.9690   80.0370 C.3   219  PHE219      0.1605
    151  C         72.1630    8.1520   80.7060 C.2   219  PHE219      0.2264
    152  O         73.0870    8.6760   80.0870 O.2   219  PHE219     -0.2867
    153  CB        70.3890    9.2820   79.3520 C.3   219  PHE219      0.0534
    154  CG        69.1500    9.1190   78.4740 C.ar  219  PHE219     -0.0203
    155  CD1       69.1000    8.1410   77.5040 C.ar  219  PHE219     -0.0042
    156  CD2       68.0440    9.9170   78.6940 C.ar  219  PHE219     -0.0042
    157  CE1       67.9500    7.9620   76.7750 C.ar  219  PHE219     -0.0003
    158  CE2       66.8990    9.7240   77.9540 C.ar  219  PHE219     -0.0003
    159  CZ        66.8470    8.7460   76.9960 C.ar  219  PHE219     -0.0000
    160  N         73.6720   10.2300   82.5550 N.3   221  PHE221     -0.1241
    161  CA        74.4100   11.4810   82.5030 C.3   221  PHE221      0.1605
    162  C         74.5240   12.1770   83.8560 C.2   221  PHE221      0.2264
    163  O         73.7050   11.9200   84.7430 O.2   221  PHE221     -0.2867
    164  CB        73.7660   12.4250   81.4670 C.3   221  PHE221      0.0534
    165  CG        72.3840   13.0110   81.7330 C.ar  221  PHE221     -0.0203
    166  CD1       72.2530   14.1740   82.4760 C.ar  221  PHE221     -0.0042
    167  CD2       71.2660   12.3980   81.2030 C.ar  221  PHE221     -0.0042
    168  CE1       71.0070   14.7220   82.6860 C.ar  221  PHE221     -0.0003
    169  CE2       70.0250   12.9550   81.4180 C.ar  221  PHE221     -0.0003
    170  CZ        69.8920   14.1110   82.1560 C.ar  221  PHE221     -0.0000
@<TRIPOS>BOND
     1    90    91    1
     2   100    99    2
     3   101   102    1
     4   101    98    1
     5   109   108    2
     6    97    98    1
     7    97    92   am
     8   108   107    1
     9   102   103    1
    10    91    92    1
    11    91    94    1
    12    98    99    1
    13    99   106   am
    14    92    93    2
    15    95    94    1
    16    94    96    1
    17   105   103   am
    18   103   104    2
    19   107   106    1
    20   107   110    1
    21   112   110    1
    22   110   111    1
    23    86    85    2
    24    85    84    1
    25    66    64   am
    26    87    84    1
    27    87    88    1
    28    58    59    1
    29    84    83    1
    30    74    73    2
    31    70    69    2
    32    50    49    2
    33    88    89    1
    34    64    65    2
    35    64    63    1
    36    31    30    2
    37    89    83    1
    38    83    78   am
    39    59    60    1
    40    59    62    1
    41    67    68    1
    42    67    60   am
    43    69    68    1
    44    69    76   am
    45    73    72    1
    46    73    75   am
    47    49    48    1
    48    71    68    1
    49    71    72    1
    50    63    62    1
    51    77    78    1
    52    77    76    1
    53    77    80    1
    54    78    79    2
    55    60    61    2
    56    30    29    1
    57    48    47    1
    58    48    51    1
    59    81    80    1
    60    37    36    1
    61    32    29    1
    62    32    33    1
    63    80    82    1
    64    34    33    1
    65    34    35    1
    66    29    28    1
    67    51    52    1
    68    36    35    2
    69    36    38    1
    70    52    53    1
    71     1     2    1
    72     5     2    1
    73     5     6    1
    74     7     6   ar
    75     7     9   ar
    76    28    26   am
    77     2     3    1
    78     6     8   ar
    79    27    26    2
    80     9    11   ar
    81    53    54    1
    82    54    55    2
    83    26    25    1
    84   120   118    1
    85     8    10   ar
    86    42    41    2
    87    11    10   ar
    88    11    12    1
    89    45    44    1
    90     3     4    2
    91     3    13   am
    92    55    57    1
    93    55    56    1
    94   117   118    1
    95   117   114    1
    96   118   119    1
    97    25    24    1
    98    41    40    1
    99    44    46    1
   100    44    43    1
   101    13    14    1
   102   127   126    1
   103    40    43    1
   104    40    39    1
   105   113   114    1
   106    16    15    2
   107   157   159   ar
   108   157   155   ar
   109   114   115    1
   110   159   158   ar
   111   126   128    1
   112   126   125    1
   113   155   154   ar
   114    14    15    1
   115    14    17    1
   116   121   115   am
   117   121   122    1
   118   158   156   ar
   119   115   116    2
   120    19    21   ar
   121    19    18   ar
   122   125   122    1
   123   154   156   ar
   124   154   153    1
   125    21    23   ar
   126    17    18    1
   127   122   123    1
   128    18    20   ar
   129   153   150    1
   130    23    22   ar
   131   150   151    1
   132   150   149    1
   133   152   151    2
   134   123   124    2
   135    20    22   ar
   136   167   169   ar
   137   167   165   ar
   138   169   170   ar
   139   164   165    1
   140   164   161    1
   141   141   142    1
   142   141   140    1
   143   165   166   ar
   144   142   143    1
   145   147   146    2
   146   135   133    1
   147   170   168   ar
   148   148   145    1
   149   136   137    1
   150   166   168   ar
   151   161   160    1
   152   161   162    1
   153   133   134    1
   154   133   130    1
   155   145   146    1
   156   145   144    1
   157   140   137    1
   158   137   138    1
   159   129   130    1
   160   162   163    2
   161   130   131    1
   162   131   132    2
   163   138   139    2
