@<TRIPOS>MOLECULE
tmp/1guiA01.pdb
 108 106 0 0 0
SMALL
GASTEIGER

@<TRIPOS>ATOM
      1  N         43.8230   26.6940    0.3270 N.3    15  GLN15      -0.1245
      2  CA        44.1400   26.5190    1.7540 C.3    15  GLN15       0.1566
      3  C         44.1630   27.8640    2.4910 C.2    15  GLN15       0.2260
      4  O         43.7040   27.9460    3.6200 O.2    15  GLN15      -0.2867
      5  CB        45.4910   25.7890    1.9250 C.3    15  GLN15       0.0367
      6  CG        45.9170   25.5640    3.3720 C.3    15  GLN15       0.0905
      7  CD        47.2830   24.8870    3.4940 C.2    15  GLN15       0.2608
      8  OE1       47.9280   24.5870    2.4790 O.2    15  GLN15      -0.2717
      9  NE2       47.7130   24.6180    4.7310 N.am   15  GLN15      -0.0878
     10  N         41.7710   20.8820   -0.0750 N.3    23  PHE23      -0.1241
     11  CA        43.0170   21.4630   -0.6040 C.3    23  PHE23       0.1605
     12  C         44.1660   20.4520   -0.6200 C.2    23  PHE23       0.2264
     13  O         44.1230   19.4070    0.0430 O.2    23  PHE23      -0.2867
     14  CB        43.4210   22.7460    0.1590 C.3    23  PHE23       0.0534
     15  CG        43.7850   22.5220    1.6060 C.ar   23  PHE23      -0.0203
     16  CD1       45.1020   22.1870    1.9790 C.ar   23  PHE23      -0.0042
     17  CD2       42.8420   22.6750    2.5930 C.ar   23  PHE23      -0.0042
     18  CE1       45.4610   21.9980    3.3110 C.ar   23  PHE23      -0.0003
     19  CE2       43.1800   22.4830    3.9350 C.ar   23  PHE23      -0.0003
     20  CZ        44.4960   22.1330    4.3010 C.ar   23  PHE23      -0.0000
     21  N         48.4420   20.2260   -0.2080 N.3    25  TRP25      -0.1241
     22  CA        49.7080   20.8280    0.2320 C.3    25  TRP25       0.1605
     23  C         50.8560   19.9170   -0.2520 C.2    25  TRP25       0.2264
     24  O         50.8020   18.6840   -0.0730 O.2    25  TRP25      -0.2867
     25  CB        49.7460   20.9550    1.7660 C.3    25  TRP25       0.0550
     26  CG        50.9690   21.6490    2.3250 C.ar   25  TRP25       0.0003
     27  CD1       51.1050   22.9820    2.6160 C.ar   25  TRP25       0.0946
     28  CD2       52.2170   21.0340    2.6770 C.ar   25  TRP25       0.0152
     29  NE1       52.3690   23.2400    3.0940 N.ar   25  TRP25      -0.2442
     30  CE2       53.0690   22.0540    3.1620 C.ar   25  TRP25       0.0810
     31  CE3       52.7130   19.7120    2.6180 C.ar   25  TRP25       0.0012
     32  CZ2       54.3720   21.7980    3.5890 C.ar   25  TRP25       0.0191
     33  CZ3       53.9900   19.4530    3.0610 C.ar   25  TRP25       0.0001
     34  CH2       54.8230   20.4920    3.5190 C.ar   25  TRP25       0.0015
     35  N         57.8410   24.4910   -0.7190 N.3    30  TYR30      -0.1241
     36  CA        58.3610   25.0390    0.5500 C.3    30  TYR30       0.1605
     37  C         59.8700   24.7680    0.8150 C.2    30  TYR30       0.2264
     38  O         60.3520   25.0360    1.9100 O.2    30  TYR30      -0.2867
     39  CB        57.4830   24.5270    1.7160 C.3    30  TYR30       0.0534
     40  CG        56.0630   25.0610    1.6020 C.ar   30  TYR30      -0.0201
     41  CD1       55.7270   26.3180    2.1080 C.ar   30  TYR30      -0.0009
     42  CD2       55.0790   24.3440    0.9410 C.ar   30  TYR30      -0.0009
     43  CE1       54.4320   26.8230    1.9630 C.ar   30  TYR30       0.0417
     44  CE2       53.7940   24.8380    0.7930 C.ar   30  TYR30       0.0417
     45  CZ        53.4670   26.0700    1.3080 C.ar   30  TYR30       0.1957
     46  OH        52.1760   26.5610    1.1330 O.3    30  TYR30      -0.2866
     47  N         53.8730   12.6520    4.7530 N.3    59  TRP59      -0.1241
     48  CA        53.2070   13.9510    4.8480 C.3    59  TRP59       0.1605
     49  C         53.7060   14.9890    3.8160 C.2    59  TRP59       0.2264
     50  O         53.1640   16.0950    3.7770 O.2    59  TRP59      -0.2867
     51  CB        53.2750   14.5160    6.2860 C.3    59  TRP59       0.0550
     52  CG        54.6800   14.7210    6.8210 C.ar   59  TRP59       0.0003
     53  CD1       55.4410   13.8080    7.5210 C.ar   59  TRP59       0.0946
     54  CD2       55.5020   15.9020    6.6820 C.ar   59  TRP59       0.0152
     55  NE1       56.6660   14.3520    7.8100 N.ar   59  TRP59      -0.2442
     56  CE2       56.7280   15.6350    7.3150 C.ar   59  TRP59       0.0810
     57  CE3       55.3090   17.1760    6.0870 C.ar   59  TRP59       0.0012
     58  CZ2       57.7870   16.5710    7.3630 C.ar   59  TRP59       0.0191
     59  CZ3       56.3700   18.1270    6.1450 C.ar   59  TRP59       0.0001
     60  CH2       57.5910   17.8030    6.7900 C.ar   59  TRP59       0.0015
     61  N         49.7430   16.1120    0.8980 N.3    62  GLN62      -0.1245
     62  CA        48.5510   16.0240    1.7490 C.3    62  GLN62       0.1566
     63  C         47.3080   16.5010    0.9900 C.2    62  GLN62       0.2260
     64  O         47.3370   17.5290    0.3030 O.2    62  GLN62      -0.2867
     65  CB        48.7100   16.8630    3.0300 C.3    62  GLN62       0.0367
     66  CG        49.7890   16.4030    4.0080 C.3    62  GLN62       0.0905
     67  CD        49.9940   17.3900    5.1940 C.2    62  GLN62       0.2608
     68  OE1       49.0150   17.8200    5.8340 O.2    62  GLN62      -0.2717
     69  NE2       51.2730   17.7520    5.4780 N.am   62  GLN62      -0.0878
     70  N         43.5840   17.4200    2.1800 N.3    64  ASN64      -0.1240
     71  CA        43.0780   17.7450    3.4940 C.3    64  ASN64       0.1653
     72  C         41.8050   18.6510    3.4540 C.2    64  ASN64       0.2266
     73  O         41.5320   19.3410    2.4590 O.2    64  ASN64      -0.2867
     74  CB        44.1060   18.5550    4.3400 C.3    64  ASN64       0.1155
     75  CG        45.4020   17.8240    4.6830 C.2    64  ASN64       0.2627
     76  OD1       45.6920   16.7060    4.2230 O.2    64  ASN64      -0.2716
     77  ND2       46.2380   18.5060    5.5260 N.am   64  ASN64      -0.0877
     78  N         44.1360   15.3380   12.7820 N.3    94  LEU94      -0.1245
     79  CA        45.2540   16.0120   13.4490 C.3    94  LEU94       0.1561
     80  C         45.0020   17.5020   13.6070 C.2    94  LEU94       0.2260
     81  O         44.1560   18.0730   12.9440 O.2    94  LEU94      -0.2867
     82  CB        46.5970   15.8000   12.7080 C.3    94  LEU94       0.0270
     83  CG        46.8430   16.5170   11.3600 C.3    94  LEU94       0.0019
     84  CD1       48.3750   16.5940   11.1790 C.3    94  LEU94       0.0001
     85  CD2       46.2040   15.8180   10.2200 C.3    94  LEU94       0.0001
     86  N         50.9130   19.9580   15.4090 N.3   100  TRP100     -0.1241
     87  CA        50.3690   18.9450   14.5150 C.3   100  TRP100      0.1605
     88  C         50.0420   17.6010   15.2030 C.2   100  TRP100      0.2264
     89  O         50.2200   16.5440   14.5980 O.2   100  TRP100     -0.2867
     90  CB        51.2900   18.7100   13.2830 C.3   100  TRP100      0.0550
     91  CG        51.8600   19.9590   12.7020 C.ar  100  TRP100      0.0003
     92  CD1       53.1510   20.4420   12.8640 C.ar  100  TRP100      0.0946
     93  CD2       51.1670   20.9450   11.9390 C.ar  100  TRP100      0.0152
     94  NE1       53.2900   21.6450   12.2070 N.ar  100  TRP100     -0.2442
     95  CE2       52.0970   21.9760   11.6260 C.ar  100  TRP100      0.0810
     96  CE3       49.8640   21.0440   11.4360 C.ar  100  TRP100      0.0012
     97  CZ2       51.7470   23.1070   10.8960 C.ar  100  TRP100      0.0191
     98  CZ3       49.5220   22.1700   10.6980 C.ar  100  TRP100      0.0001
     99  CH2       50.4550   23.1810   10.4400 C.ar  100  TRP100      0.0015
    100  N         41.7830   18.9870   11.3660 N.3   132  GLN132     -0.1196
    101  CA        41.6650   18.6490    9.9630 C.3   132  GLN132      0.1782
    102  C         41.7140   17.1470    9.7320 C.2   132  GLN132      0.2306
    103  O         42.3800   16.4240   10.4980 O.2   132  GLN132     -0.2863
    104  CB        42.7280   19.3890    9.1280 C.2   132  GLN132      0.0051
    105  CG        44.1830   19.1020    9.5160 C.2   132  GLN132      0.0584
    106  CD        45.2530   19.8380    8.6700 C.2   132  GLN132      0.2840
    107  OE1       44.9750   20.3090    7.5480 O.2   132  GLN132     -0.2667
    108  NE2       46.5140   19.8590    9.1900 N.am  132  GLN132     -0.0837
@<TRIPOS>BOND
     1    35    36    1
     2    12    11    1
     3    12    13    2
     4    11    10    1
     5    11    14    1
     6    23    24    2
     7    23    22    1
     8    21    22    1
     9    14    15    1
    10    22    25    1
    11    64    63    2
    12     1     2    1
    13    36    37    1
    14    36    39    1
    15    44    42   ar
    16    44    45   ar
    17    37    38    2
    18    61    62    1
    19    42    40   ar
    20    63    62    1
    21    46    45    1
    22    45    43   ar
    23    40    39    1
    24    40    41   ar
    25    15    16   ar
    26    15    17   ar
    27    62    65    1
    28     2     5    1
    29     2     3    1
    30    25    26    1
    31     5     6    1
    32    43    41   ar
    33    16    18   ar
    34    70    71    1
    35    26    27   ar
    36    26    28   ar
    37    73    72    2
    38     8     7    2
    39     3     4    2
    40    17    19   ar
    41    27    29   ar
    42    31    28   ar
    43    31    33   ar
    44    28    30   ar
    45    65    66    1
    46    33    34   ar
    47    29    30   ar
    48    30    32   ar
    49    18    20   ar
    50     6     7    1
    51    72    71    1
    52     7     9   am
    53    71    74    1
    54    34    32   ar
    55    50    49    2
    56    49    48    1
    57    19    20   ar
    58    66    67    1
    59    76    75    2
    60    74    75    1
    61    75    77   am
    62    47    48    1
    63    48    51    1
    64    67    69   am
    65    67    68    2
    66    57    59   ar
    67    57    54   ar
    68    59    60   ar
    69    51    52    1
    70    54    52   ar
    71    54    56   ar
    72    60    58   ar
    73    52    53   ar
    74    56    58   ar
    75    56    55   ar
    76    53    55   ar
    77   107   106    2
    78   106   108   am
    79   106   105    1
    80   104   105    2
    81   104   101    1
    82   102   101    1
    83   102   103    2
    84   101   100    1
    85    85    83    1
    86    99    98   ar
    87    99    97   ar
    88    98    96   ar
    89    97    95   ar
    90    84    83    1
    91    83    82    1
    92    96    93   ar
    93    95    93   ar
    94    95    94   ar
    95    93    91   ar
    96    94    92   ar
    97    91    92   ar
    98    91    90    1
    99    82    79    1
   100    78    79    1
   101    81    80    2
   102    90    87    1
   103    79    80    1
   104    87    88    1
   105    87    86    1
   106    89    88    2
