@<TRIPOS>MOLECULE
tmp/1guiA02.pdb
 123 119 0 0 0
SMALL
GASTEIGER

@<TRIPOS>ATOM
      1  N         48.4420   20.2260   -0.2080 N.3    25  TRP25      -0.1241
      2  CA        49.7080   20.8280    0.2320 C.3    25  TRP25       0.1605
      3  C         50.8560   19.9170   -0.2520 C.2    25  TRP25       0.2264
      4  O         50.8020   18.6840   -0.0730 O.2    25  TRP25      -0.2867
      5  CB        49.7460   20.9550    1.7660 C.3    25  TRP25       0.0550
      6  CG        50.9690   21.6490    2.3250 C.ar   25  TRP25       0.0003
      7  CD1       51.1050   22.9820    2.6160 C.ar   25  TRP25       0.0946
      8  CD2       52.2170   21.0340    2.6770 C.ar   25  TRP25       0.0152
      9  NE1       52.3690   23.2400    3.0940 N.ar   25  TRP25      -0.2442
     10  CE2       53.0690   22.0540    3.1620 C.ar   25  TRP25       0.0810
     11  CE3       52.7130   19.7120    2.6180 C.ar   25  TRP25       0.0012
     12  CZ2       54.3720   21.7980    3.5890 C.ar   25  TRP25       0.0191
     13  CZ3       53.9900   19.4530    3.0610 C.ar   25  TRP25       0.0001
     14  CH2       54.8230   20.4920    3.5190 C.ar   25  TRP25       0.0015
     15  N         58.9010   11.6850    2.7530 N.3    57  ASP57      -0.1239
     16  CA        58.0580   11.2920    3.8930 C.3    57  ASP57       0.1674
     17  C         56.5990   11.3120    3.5130 C.2    57  ASP57       0.2266
     18  O         56.2180   11.9540    2.5410 O.2    57  ASP57      -0.2867
     19  CB        58.2880   12.1800    5.1110 C.3    57  ASP57       0.1410
     20  CG        58.1810   11.3970    6.4340 C.2    57  ASP57       0.3668
     21  OD1       57.4330   10.3450    6.5250 O.co2  57  ASP57      -0.2456
     22  OD2       58.8490   11.7740    7.4280 O.co2  57  ASP57      -0.2456
     23  N         53.8730   12.6520    4.7530 N.3    59  TRP59      -0.1241
     24  CA        53.2070   13.9510    4.8480 C.3    59  TRP59       0.1605
     25  C         53.7060   14.9890    3.8160 C.2    59  TRP59       0.2264
     26  O         53.1640   16.0950    3.7770 O.2    59  TRP59      -0.2867
     27  CB        53.2750   14.5160    6.2860 C.3    59  TRP59       0.0550
     28  CG        54.6800   14.7210    6.8210 C.ar   59  TRP59       0.0003
     29  CD1       55.4410   13.8080    7.5210 C.ar   59  TRP59       0.0946
     30  CD2       55.5020   15.9020    6.6820 C.ar   59  TRP59       0.0152
     31  NE1       56.6660   14.3520    7.8100 N.ar   59  TRP59      -0.2442
     32  CE2       56.7280   15.6350    7.3150 C.ar   59  TRP59       0.0810
     33  CE3       55.3090   17.1760    6.0870 C.ar   59  TRP59       0.0012
     34  CZ2       57.7870   16.5710    7.3630 C.ar   59  TRP59       0.0191
     35  CZ3       56.3700   18.1270    6.1450 C.ar   59  TRP59       0.0001
     36  CH2       57.5910   17.8030    6.7900 C.ar   59  TRP59       0.0015
     37  N         49.7430   16.1120    0.8980 N.3    62  GLN62      -0.1245
     38  CA        48.5510   16.0240    1.7490 C.3    62  GLN62       0.1566
     39  C         47.3080   16.5010    0.9900 C.2    62  GLN62       0.2260
     40  O         47.3370   17.5290    0.3030 O.2    62  GLN62      -0.2867
     41  CB        48.7100   16.8630    3.0300 C.3    62  GLN62       0.0367
     42  CG        49.7890   16.4030    4.0080 C.3    62  GLN62       0.0905
     43  CD        49.9940   17.3900    5.1940 C.2    62  GLN62       0.2608
     44  OE1       49.0150   17.8200    5.8340 O.2    62  GLN62      -0.2717
     45  NE2       51.2730   17.7520    5.4780 N.am   62  GLN62      -0.0878
     46  N         44.3960   10.4620    8.6040 N.3    92  LYS92      -0.1245
     47  CA        44.5810   11.0310    9.9250 C.3    92  LYS92       0.1561
     48  C         43.5200   12.0890   10.3000 C.2    92  LYS92       0.2260
     49  O         42.9610   12.7580    9.4200 O.2    92  LYS92      -0.2867
     50  CB        45.9660   11.7210    9.9920 C.3    92  LYS92       0.0271
     51  CG        47.1810   10.7720    9.8480 C.3    92  LYS92       0.0035
     52  CD        48.5280   11.4960   10.0160 C.3    92  LYS92       0.0206
     53  CE        49.7020   10.5000   10.0860 C.3    92  LYS92       0.1093
     54  NZ        51.0420   11.2080   10.1950 N.3    92  LYS92      -0.1314
     55  N         44.1360   15.3380   12.7820 N.3    94  LEU94      -0.1245
     56  CA        45.2540   16.0120   13.4490 C.3    94  LEU94       0.1561
     57  C         45.0020   17.5020   13.6070 C.2    94  LEU94       0.2260
     58  O         44.1560   18.0730   12.9440 O.2    94  LEU94      -0.2867
     59  CB        46.5970   15.8000   12.7080 C.3    94  LEU94       0.0270
     60  CG        46.8430   16.5170   11.3600 C.3    94  LEU94       0.0019
     61  CD1       48.3750   16.5940   11.1790 C.3    94  LEU94       0.0001
     62  CD2       46.2040   15.8180   10.2200 C.3    94  LEU94       0.0001
     63  N         50.8210   23.9210   14.3420 N.3    98  ASP98      -0.1225
     64  CA        51.9220   23.3540   15.1540 C.3    98  ASP98       0.1790
     65  C         51.4940   23.1780   16.5880 C.2    98  ASP98       0.2440
     66  O         50.9760   24.1490   17.1600 O.2    98  ASP98      -0.2733
     67  CB        53.1400   24.3000   15.0830 C.3    98  ASP98       0.1423
     68  CG        54.3250   23.7650   15.8680 C.2    98  ASP98       0.3668
     69  OD1       54.3810   23.9630   17.0950 O.co2  98  ASP98      -0.2456
     70  OD2       55.2240   23.0880   15.3510 O.co2  98  ASP98      -0.2456
     71  N         51.7550   22.0490   17.2510 N.am   99  PRO99      -0.2718
     72  CA        52.6480   20.9530   16.8160 C.3    99  PRO99       0.1535
     73  C         52.0580   19.7750   16.0560 C.2    99  PRO99       0.2598
     74  O         52.6660   18.6820   16.0370 O.2    99  PRO99      -0.2715
     75  CB        53.2420   20.4850   18.1590 C.3    99  PRO99       0.0310
     76  CG        52.0700   20.5680   19.1240 C.3    99  PRO99       0.0237
     77  CD        51.3090   21.8340   18.6420 C.3    99  PRO99       0.0939
     78  N         50.9130   19.9580   15.4090 N.am  100  TRP100     -0.1974
     79  CA        50.3690   18.9450   14.5150 C.3   100  TRP100      0.1640
     80  C         50.0420   17.6010   15.2030 C.2   100  TRP100      0.2290
     81  O         50.2200   16.5440   14.5980 O.2   100  TRP100     -0.2864
     82  CB        51.2900   18.7100   13.2830 C.3   100  TRP100      0.0576
     83  CG        51.8600   19.9590   12.7020 C.ar  100  TRP100      0.0006
     84  CD1       53.1510   20.4420   12.8640 C.ar  100  TRP100      0.0946
     85  CD2       51.1670   20.9450   11.9390 C.ar  100  TRP100      0.0152
     86  NE1       53.2900   21.6450   12.2070 N.ar  100  TRP100     -0.2442
     87  CE2       52.0970   21.9760   11.6260 C.ar  100  TRP100      0.0810
     88  CE3       49.8640   21.0440   11.4360 C.ar  100  TRP100      0.0012
     89  CZ2       51.7470   23.1070   10.8960 C.ar  100  TRP100      0.0191
     90  CZ3       49.5220   22.1700   10.6980 C.ar  100  TRP100      0.0001
     91  CH2       50.4550   23.1810   10.4400 C.ar  100  TRP100      0.0015
     92  N         48.6600   14.2040   16.2430 N.3   102  ASN102     -0.1240
     93  CA        47.8280   13.2440   15.5310 C.3   102  ASN102      0.1653
     94  C         46.8450   12.6270   16.5400 C.2   102  ASN102      0.2266
     95  O         47.2670   11.9090   17.4840 O.2   102  ASN102     -0.2867
     96  CB        48.6490   12.0980   14.9050 C.3   102  ASN102      0.1155
     97  CG        49.5990   12.5100   13.7400 C.2   102  ASN102      0.2627
     98  OD1       50.0870   11.6120   13.0250 O.2   102  ASN102     -0.2716
     99  ND2       49.8530   13.8270   13.5280 N.am  102  ASN102     -0.0877
    100  N         41.7830   18.9870   11.3660 N.3   132  GLN132     -0.1196
    101  CA        41.6650   18.6490    9.9630 C.3   132  GLN132      0.1782
    102  C         41.7140   17.1470    9.7320 C.2   132  GLN132      0.2306
    103  O         42.3800   16.4240   10.4980 O.2   132  GLN132     -0.2863
    104  CB        42.7280   19.3890    9.1280 C.2   132  GLN132      0.0051
    105  CG        44.1830   19.1020    9.5160 C.2   132  GLN132      0.0584
    106  CD        45.2530   19.8380    8.6700 C.2   132  GLN132      0.2840
    107  OE1       44.9750   20.3090    7.5480 O.2   132  GLN132     -0.2667
    108  NE2       46.5140   19.8590    9.1900 N.am  132  GLN132     -0.0837
    109  N         43.2280   14.4890    7.0250 N.3   134  SER134     -0.1217
    110  CA        44.3760   14.4650    6.1010 C.3   134  SER134      0.1889
    111  C         44.6070   13.0980    5.4870 C.2   134  SER134      0.2288
    112  O         44.7710   12.1150    6.2240 O.2   134  SER134     -0.2866
    113  CB        45.6820   14.9220    6.8420 C.3   134  SER134      0.2089
    114  OG        46.8110   14.9490    5.9500 O.3   134  SER134     -0.2183
    115  N         47.5730   11.3410    3.5220 N.3   136  GLU136     -0.1196
    116  CA        49.0020   11.5140    3.2460 C.3   136  GLU136      0.1783
    117  C         49.3850   10.6180    2.0780 C.2   136  GLU136      0.2306
    118  O         49.2650    9.3860    2.1660 O.2   136  GLU136     -0.2863
    119  CB        49.8610   11.1910    4.4680 C.2   136  GLU136      0.0071
    120  CG        49.6070   12.0550    5.6780 C.2   136  GLU136      0.0834
    121  CD        50.5390   11.8030    6.8590 C.2   136  GLU136      0.3877
    122  OE1       51.1380   10.7190    6.9530 O.co2 136  GLU136     -0.2406
    123  OE2       50.6730   12.6990    7.7380 O.co2 136  GLU136     -0.2406
@<TRIPOS>BOND
     1     3     4    2
     2     3     2    1
     3     1     2    1
     4     2     5    1
     5    40    39    2
     6    37    38    1
     7    39    38    1
     8    38    41    1
     9     5     6    1
    10   117   118    2
    11   117   116    1
    12     6     7   ar
    13     6     8   ar
    14    18    17    2
    15     7     9   ar
    16    11     8   ar
    17    11    13   ar
    18     8    10   ar
    19    15    16    1
    20    41    42    1
    21    13    14   ar
    22     9    10   ar
    23    10    12   ar
    24   116   115    1
    25   116   119    1
    26    17    16    1
    27    14    12   ar
    28    26    25    2
    29    25    24    1
    30    16    19    1
    31    42    43    1
    32   119   120    2
    33    23    24    1
    34    24    27    1
    35    19    20    1
    36    43    45   am
    37    43    44    2
    38   111   110    1
    39   111   112    2
    40   120   121    1
    41   114   113    1
    42    33    35   ar
    43    33    30   ar
    44   110   113    1
    45   110   109    1
    46    35    36   ar
    47    27    28    1
    48    20    21   ar
    49    20    22   ar
    50    30    28   ar
    51    30    32   ar
    52    36    34   ar
    53    28    29   ar
    54   121   122   ar
    55   121   123   ar
    56    32    34   ar
    57    32    31   ar
    58    29    31   ar
    59   107   106    2
    60    46    47    1
    61   106   108   am
    62   106   105    1
    63   104   105    2
    64   104   101    1
    65    49    48    2
    66   102   101    1
    67   102   103    2
    68    51    50    1
    69    51    52    1
    70    47    50    1
    71    47    48    1
    72   101   100    1
    73    52    53    1
    74    53    54    1
    75    62    60    1
    76    91    90   ar
    77    91    89   ar
    78    90    88   ar
    79    89    87   ar
    80    61    60    1
    81    60    59    1
    82    88    85   ar
    83    87    85   ar
    84    87    86   ar
    85    85    83   ar
    86    86    84   ar
    87    83    84   ar
    88    83    82    1
    89    59    56    1
    90    55    56    1
    91    58    57    2
    92    98    97    2
    93    82    79    1
    94    56    57    1
    95    99    97   am
    96    97    96    1
    97    63    64    1
    98    79    80    1
    99    79    78    1
   100    81    80    2
   101    96    93    1
   102    67    64    1
   103    67    68    1
   104    64    65    1
   105    70    68   ar
   106    78    73   am
   107    93    92    1
   108    93    94    1
   109    68    69   ar
   110    74    73    2
   111    73    72    1
   112    94    95    2
   113    65    66    2
   114    65    71   am
   115    72    71    1
   116    72    75    1
   117    71    77    1
   118    75    76    1
   119    77    76    1
