@<TRIPOS>MOLECULE
tmp/1gulA00.pdb
 176 170 0 0 0
SMALL
GASTEIGER

@<TRIPOS>ATOM
      1  N         12.0170  -22.4380  -54.0670 N.3     6  TYR6       -0.1228
      2  CA        13.4200  -22.6570  -54.0120 C.3     6  TYR6        0.1721
      3  C         13.7510  -23.4510  -55.2160 C.2     6  TYR6        0.2437
      4  O         12.9160  -24.0790  -55.8370 O.2     6  TYR6       -0.2733
      5  CB        13.6870  -23.5710  -52.7970 C.3     6  TYR6        0.0547
      6  CG        15.0710  -23.4140  -52.2020 C.ar    6  TYR6       -0.0200
      7  CD1       15.3800  -22.1870  -51.6350 C.ar    6  TYR6       -0.0009
      8  CD2       16.0780  -24.3830  -52.2200 C.ar    6  TYR6       -0.0009
      9  CE1       16.6190  -21.9330  -51.0610 C.ar    6  TYR6        0.0417
     10  CE2       17.3530  -24.1450  -51.6860 C.ar    6  TYR6        0.0417
     11  CZ        17.6090  -22.8990  -51.1060 C.ar    6  TYR6        0.1957
     12  OH        18.7840  -22.5310  -50.5290 O.3     6  TYR6       -0.2866
     13  N         15.0080  -23.4640  -55.4890 N.am    7  PRO7       -0.2729
     14  CA        15.5470  -24.2810  -56.5180 C.3     7  PRO7        0.1401
     15  C         15.2610  -25.6980  -56.1250 C.2     7  PRO7        0.2269
     16  O         14.9190  -25.9940  -54.9870 O.2     7  PRO7       -0.2865
     17  CB        17.0670  -24.1110  -56.4280 C.3     7  PRO7        0.0296
     18  CG        17.3140  -22.7940  -55.7280 C.3     7  PRO7        0.0237
     19  CD        15.9880  -22.4590  -55.0180 C.3     7  PRO7        0.0939
     20  N         19.9890  -27.0890  -50.4060 N.3    11  GLY11      -0.1210
     21  CA        20.4190  -25.7760  -49.9940 C.3    11  GLY11       0.1956
     22  C         20.0010  -25.5370  -48.5910 C.2    11  GLY11       0.2611
     23  O         20.0980  -26.4500  -47.7320 O.2    11  GLY11      -0.2717
     24  N         19.4500  -24.3430  -48.3880 N.am   12  ARG12      -0.1979
     25  CA        18.9590  -23.9840  -47.0840 C.3    12  ARG12       0.1597
     26  C         17.5470  -24.4410  -46.7880 C.2    12  ARG12       0.2287
     27  O         17.1780  -24.4790  -45.6060 O.2    12  ARG12      -0.2864
     28  CB        19.0100  -22.5160  -46.9380 C.3    12  ARG12       0.0334
     29  CG        20.3820  -21.9800  -47.1700 C.3    12  ARG12       0.0492
     30  CD        20.4510  -20.5020  -46.8600 C.3    12  ARG12       0.2205
     31  NE        21.7950  -20.0470  -47.1620 N.pl3  12  ARG12      -0.0865
     32  CZ        22.7080  -20.3520  -46.2610 C.cat  12  ARG12       0.5346
     33  NH1       22.3530  -20.9950  -45.1760 N.pl3  12  ARG12       0.1354
     34  NH2       23.9630  -20.0450  -46.4380 N.pl3  12  ARG12       0.1354
     35  N         13.3400  -16.0460  -60.7140 N.3    38  LEU38      -0.1245
     36  CA        13.6360  -15.4110  -59.4850 C.3    38  LEU38       0.1561
     37  C         13.1770  -13.9840  -59.6020 C.2    38  LEU38       0.2260
     38  O         12.4250  -13.4910  -58.7520 O.2    38  LEU38      -0.2867
     39  CB        15.1190  -15.5510  -59.2010 C.3    38  LEU38       0.0270
     40  CG        15.6000  -14.7420  -58.0020 C.3    38  LEU38       0.0019
     41  CD1       14.8740  -15.1100  -56.6970 C.3    38  LEU38       0.0001
     42  CD2       17.0950  -14.9440  -57.8590 C.3    38  LEU38       0.0001
     43  N         10.6280  -11.8210  -57.2990 N.3    42  GLN42      -0.1245
     44  CA        11.1070  -10.6450  -56.6620 C.3    42  GLN42       0.1566
     45  C         10.2610   -9.5080  -57.0420 C.2    42  GLN42       0.2260
     46  O          9.7820   -8.7680  -56.2020 O.2    42  GLN42      -0.2867
     47  CB        12.4980  -10.3740  -57.1630 C.3    42  GLN42       0.0367
     48  CG        13.4700  -11.2560  -56.4290 C.3    42  GLN42       0.0905
     49  CD        14.8430  -11.0570  -56.9490 C.2    42  GLN42       0.2608
     50  OE1       14.9740  -10.6680  -58.0980 O.2    42  GLN42      -0.2717
     51  NE2       15.8540  -11.4120  -56.1380 N.am   42  GLN42      -0.0878
     52  N         13.9180  -10.1780  -50.9180 N.3    50  GLN50      -0.1231
     53  CA        14.4540  -10.5530  -52.2010 C.3    50  GLN50       0.1698
     54  C         15.1810  -11.8560  -52.2470 C.2    50  GLN50       0.2592
     55  O         15.7970  -12.1700  -53.2420 O.2    50  GLN50      -0.2718
     56  CB        15.3190   -9.4370  -52.7820 C.3    50  GLN50       0.0381
     57  CG        14.6300   -8.0160  -52.7930 C.3    50  GLN50       0.0905
     58  CD        13.3740   -7.9000  -53.6600 C.2    50  GLN50       0.2608
     59  OE1       13.3790   -7.1850  -54.6650 O.2    50  GLN50      -0.2717
     60  NE2       12.2980   -8.6050  -53.3280 N.am   50  GLN50      -0.0878
     61  N         15.0730  -12.6320  -51.1900 N.am   51  GLN51      -0.1966
     62  CA        15.7310  -13.8900  -51.2350 C.3    51  GLN51       0.1733
     63  C         14.7830  -14.9600  -50.8700 C.2    51  GLN51       0.2616
     64  O         13.7130  -14.6490  -50.3430 O.2    51  GLN51      -0.2715
     65  CB        16.6810  -13.9780  -50.0700 C.3    51  GLN51       0.0408
     66  CG        17.6440  -12.8180  -50.1380 C.3    51  GLN51       0.0908
     67  CD        18.4140  -12.6320  -48.8680 C.2    51  GLN51       0.2608
     68  OE1       17.8640  -12.1960  -47.8290 O.2    51  GLN51      -0.2717
     69  NE2       19.6590  -13.0750  -48.9120 N.am   51  GLN51      -0.0878
     70  N         15.2590  -16.1770  -51.1440 N.am   52  VAL52      -0.1964
     71  CA        14.6780  -17.4510  -50.7800 C.3    52  VAL52       0.1712
     72  C         15.6810  -18.1130  -49.8000 C.2    52  VAL52       0.2458
     73  O         16.8900  -17.8230  -49.7440 O.2    52  VAL52      -0.2730
     74  CB        14.4390  -18.3780  -51.9700 C.3    52  VAL52       0.0289
     75  CG1       13.2840  -17.8630  -52.7670 C.3    52  VAL52       0.0023
     76  CG2       15.6730  -18.4580  -52.8570 C.3    52  VAL52       0.0023
     77  N         15.2280  -19.0150  -48.9620 N.am   53  PRO53      -0.2727
     78  CA        13.8960  -19.5530  -48.9260 C.3    53  PRO53       0.1402
     79  C         12.7860  -18.6280  -48.6480 C.2    53  PRO53       0.2269
     80  O         12.8590  -17.7770  -47.7770 O.2    53  PRO53      -0.2865
     81  CB        13.9260  -20.4930  -47.6940 C.3    53  PRO53       0.0296
     82  CG        15.3790  -20.7820  -47.4090 C.3    53  PRO53       0.0237
     83  CD        16.2420  -19.9040  -48.2950 C.3    53  PRO53       0.0939
     84  N         13.6420  -16.1770  -44.5280 N.3    64  GLN64      -0.1231
     85  CA        14.6340  -16.4040  -43.4680 C.3    64  GLN64       0.1698
     86  C         14.3930  -17.7410  -42.8910 C.2    64  GLN64       0.2593
     87  O         13.4220  -17.9460  -42.1400 O.2    64  GLN64      -0.2718
     88  CB        14.5880  -15.3740  -42.3250 C.3    64  GLN64       0.0381
     89  CG        14.8790  -13.9670  -42.8800 C.3    64  GLN64       0.0905
     90  CD        16.3560  -13.7530  -43.1960 C.2    64  GLN64       0.2608
     91  OE1       17.2020  -14.5140  -42.6700 O.2    64  GLN64      -0.2717
     92  NE2       16.6630  -12.7600  -44.0530 N.am   64  GLN64      -0.0878
     93  N         15.2760  -18.6280  -43.2620 N.am   65  THR65      -0.1939
     94  CA        15.1930  -20.0040  -42.7930 C.3    65  THR65       0.2028
     95  C         14.9000  -20.1310  -41.3360 C.2    65  THR65       0.2642
     96  O         13.9590  -20.7920  -40.9670 O.2    65  THR65      -0.2714
     97  CB        16.5210  -20.6650  -43.0620 C.3    65  THR65       0.1808
     98  OG1       16.8510  -20.4130  -44.4010 O.3    65  THR65      -0.2208
     99  CG2       16.4750  -22.1180  -42.7910 C.3    65  THR65       0.0379
    100  N         15.6600  -19.4560  -40.4850 N.am   66  ARG66      -0.1977
    101  CA        15.3580  -19.6710  -39.0770 C.3    66  ARG66       0.1597
    102  C         13.9910  -19.2380  -38.6260 C.2    66  ARG66       0.2287
    103  O         13.3920  -19.7940  -37.7200 O.2    66  ARG66      -0.2864
    104  CB        16.3320  -18.9510  -38.2290 C.3    66  ARG66       0.0334
    105  CG        17.7610  -19.3130  -38.5540 C.3    66  ARG66       0.0492
    106  CD        18.7190  -18.3030  -37.9300 C.3    66  ARG66       0.2205
    107  NE        20.0340  -18.8350  -37.6570 N.pl3  66  ARG66      -0.0865
    108  CZ        20.8100  -19.1530  -38.6720 C.cat  66  ARG66       0.5346
    109  NH1       20.3580  -18.9420  -39.8840 N.pl3  66  ARG66       0.1354
    110  NH2       21.9810  -19.7760  -38.5080 N.pl3  66  ARG66       0.1354
    111  N         26.0140  -25.6600  -41.8880 N.3   101  GLU101     -0.1245
    112  CA        26.4880  -24.7160  -42.8690 C.3   101  GLU101      0.1567
    113  C         27.6350  -25.2200  -43.6820 C.2   101  GLU101      0.2260
    114  O         27.7420  -25.0140  -44.8630 O.2   101  GLU101     -0.2867
    115  CB        26.9460  -23.4860  -42.1420 C.3   101  GLU101      0.0388
    116  CG        27.1300  -22.3330  -43.1010 C.3   101  GLU101      0.1160
    117  CD        25.8790  -21.8730  -43.7970 C.2   101  GLU101      0.3649
    118  OE1       24.7460  -22.2340  -43.4570 O.co2 101  GLU101     -0.2457
    119  OE2       26.1690  -21.0010  -44.7530 O.co2 101  GLU101     -0.2457
    120  N         26.1730  -27.0990  -46.3510 N.3   104  ILE104     -0.1231
    121  CA        25.5520  -26.1590  -47.3140 C.3   104  ILE104      0.1693
    122  C         26.5090  -25.4760  -48.2690 C.2   104  ILE104      0.2594
    123  O         26.1990  -25.3710  -49.4830 O.2   104  ILE104     -0.2718
    124  CB        24.7100  -25.1170  -46.6610 C.3   104  ILE104      0.0266
    125  CG1       23.5970  -25.8800  -46.0140 C.3   104  ILE104      0.0019
    126  CG2       24.1920  -24.0730  -47.6470 C.3   104  ILE104      0.0020
    127  CD1       22.7710  -25.0020  -45.1780 C.3   104  ILE104      0.0001
    128  N         27.6420  -25.0360  -47.7090 N.am  105  MET105     -0.1934
    129  CA        28.6620  -24.4050  -48.5170 C.3   105  MET105      0.1821
    130  C         29.4680  -25.3420  -49.3790 C.2   105  MET105      0.2332
    131  O         30.0200  -24.9470  -50.3770 O.2   105  MET105     -0.2860
    132  CB        29.6990  -23.6330  -47.7110 C.2   105  MET105      0.0096
    133  CG        29.1320  -22.7050  -46.6340 C.2   105  MET105      0.0285
    134  SD        30.3410  -21.9960  -45.4070 S.3   105  MET105     -0.1125
    135  CE        31.6770  -23.2660  -45.3890 C.3   105  MET105      0.0742
    136  N         29.9330  -25.5460  -53.2160 N.3   108  PHE108     -0.1241
    137  CA        30.3990  -24.3800  -53.9370 C.3   108  PHE108      0.1605
    138  C         31.8680  -24.0450  -53.7350 C.2   108  PHE108      0.2264
    139  O         32.3240  -22.9540  -54.0740 O.2   108  PHE108     -0.2867
    140  CB        29.5230  -23.2140  -53.5500 C.3   108  PHE108      0.0534
    141  CG        28.0960  -23.5590  -53.7920 C.ar  108  PHE108     -0.0203
    142  CD1       27.5390  -23.4930  -55.0740 C.ar  108  PHE108     -0.0042
    143  CD2       27.2880  -23.9730  -52.7330 C.ar  108  PHE108     -0.0042
    144  CE1       26.2050  -23.8340  -55.3170 C.ar  108  PHE108     -0.0003
    145  CE2       25.9530  -24.3060  -52.9630 C.ar  108  PHE108     -0.0003
    146  CZ        25.4080  -24.2540  -54.2480 C.ar  108  PHE108     -0.0000
    147  N         22.6920  -29.0930  -60.0150 N.3   209  TYR209     -0.1241
    148  CA        22.1500  -28.2130  -59.0290 C.3   209  TYR209      0.1605
    149  C         23.1420  -27.0600  -58.8690 C.2   209  TYR209      0.2264
    150  O         22.8180  -25.8460  -58.9360 O.2   209  TYR209     -0.2867
    151  CB        21.9850  -28.9510  -57.6950 C.3   209  TYR209      0.0534
    152  CG        21.6900  -28.0240  -56.5370 C.ar  209  TYR209     -0.0201
    153  CD1       20.4200  -27.4560  -56.3450 C.ar  209  TYR209     -0.0009
    154  CD2       22.6970  -27.7240  -55.6080 C.ar  209  TYR209     -0.0009
    155  CE1       20.1810  -26.6040  -55.2520 C.ar  209  TYR209      0.0417
    156  CE2       22.4780  -26.8760  -54.5100 C.ar  209  TYR209      0.0417
    157  CZ        21.2110  -26.3040  -54.3390 C.ar  209  TYR209      0.1957
    158  OH        21.0150  -25.4130  -53.2930 O.3   209  TYR209     -0.2866
    159  N         22.2510  -23.3100  -59.5410 N.3   213  VAL213     -0.1245
    160  CA        22.1560  -22.2900  -58.5420 C.3   213  VAL213      0.1561
    161  C         22.9380  -21.1220  -58.9670 C.2   213  VAL213      0.2260
    162  O         22.4580  -19.9980  -58.9090 O.2   213  VAL213     -0.2867
    163  CB        22.2580  -22.6880  -57.0840 C.3   213  VAL213      0.0252
    164  CG1       21.5700  -24.0080  -56.9470 C.3   213  VAL213      0.0019
    165  CG2       23.6720  -22.8210  -56.6440 C.3   213  VAL213      0.0019
    166  N         21.6170  -17.1560  -59.3490 N.3   217  PHE217     -0.1241
    167  CA        22.0930  -16.1240  -58.4090 C.3   217  PHE217      0.1605
    168  C         23.5340  -15.5320  -58.6010 C.2   217  PHE217      0.2264
    169  O         24.2180  -15.4770  -59.6590 O.2   217  PHE217     -0.2867
    170  CB        22.0580  -16.7630  -57.0050 C.3   217  PHE217      0.0534
    171  CG        20.8160  -17.4740  -56.4630 C.ar  217  PHE217     -0.0203
    172  CD1       19.6740  -16.7550  -56.1180 C.ar  217  PHE217     -0.0042
    173  CD2       20.8350  -18.8200  -56.1060 C.ar  217  PHE217     -0.0042
    174  CE1       18.5580  -17.3590  -55.5440 C.ar  217  PHE217     -0.0003
    175  CE2       19.7310  -19.4510  -55.5270 C.ar  217  PHE217     -0.0003
    176  CZ        18.5770  -18.7220  -55.2640 C.ar  217  PHE217     -0.0000
@<TRIPOS>BOND
     1    35    36    1
     2   147   148    1
     3   169   168    2
     4    37    36    1
     5    37    38    2
     6   159   160    1
     7    36    39    1
     8   166   167    1
     9    39    40    1
    10   148   149    1
    11   148   151    1
    12   161   162    2
    13   161   160    1
    14   150   149    2
    15   168   167    1
    16   160   163    1
    17   167   170    1
    18    50    49    2
    19    40    42    1
    20    40    41    1
    21   151   152    1
    22    43    44    1
    23    47    44    1
    24    47    48    1
    25   163   164    1
    26   163   165    1
    27    45    44    1
    28    45    46    2
    29   170   171    1
    30    49    48    1
    31    49    51   am
    32   152   153   ar
    33   152   154   ar
    34    14    17    1
    35    14    15    1
    36    14    13    1
    37   171   172   ar
    38   171   173   ar
    39    17    18    1
    40   153   155   ar
    41    15    16    2
    42   172   174   ar
    43   173   175   ar
    44     4     3    2
    45    18    19    1
    46   154   156   ar
    47   174   176   ar
    48   175   176   ar
    49    13     3   am
    50    13    19    1
    51   144   142   ar
    52   144   146   ar
    53   155   157   ar
    54     3     2    1
    55   142   141   ar
    56    59    58    2
    57   156   157   ar
    58   157   158    1
    59   146   145   ar
    60   139   138    2
    61     1     2    1
    62     2     5    1
    63   137   138    1
    64   137   140    1
    65   137   136    1
    66   141   140    1
    67   141   143   ar
    68    58    60   am
    69    58    57    1
    70    55    54    2
    71   145   143   ar
    72    76    74    1
    73     5     6    1
    74    57    56    1
    75    56    53    1
    76    75    74    1
    77    54    53    1
    78    54    61   am
    79     8     6   ar
    80     8    10   ar
    81     6     7   ar
    82    53    52    1
    83    74    71    1
    84    10    11   ar
    85     7     9   ar
    86    62    61    1
    87    62    63    1
    88    62    65    1
    89    70    63   am
    90    70    71    1
    91    11     9   ar
    92    11    12    1
    93    63    64    2
    94    71    72    1
    95    20    21    1
    96   131   130    2
    97    66    65    1
    98    66    67    1
    99    21    22    1
   100    72    73    2
   101    72    77   am
   102   123   122    2
   103   130   129    1
   104    77    78    1
   105    77    83    1
   106    78    79    1
   107    78    81    1
   108    69    67   am
   109    67    68    2
   110    79    80    2
   111    22    24   am
   112    22    23    2
   113   129   132    1
   114   129   128    1
   115    24    25    1
   116    83    82    1
   117   122   128   am
   118   122   121    1
   119   132   133    2
   120    81    82    1
   121   126   124    1
   122   121   124    1
   123   121   120    1
   124    29    28    1
   125    29    30    1
   126    31    30    1
   127    31    32    2
   128    25    28    1
   129    25    26    1
   130    26    27    2
   131   124   125    1
   132   133   134    1
   133    34    32    1
   134    32    33    1
   135   125   127    1
   136   134   135    1
   137   114   113    2
   138   119   117   ar
   139    84    85    1
   140    98    97    1
   141    92    90   am
   142   117   118   ar
   143   117   116    1
   144   113   112    1
   145    85    86    1
   146    85    88    1
   147    93    86   am
   148    93    94    1
   149    90    89    1
   150    90    91    2
   151   116   115    1
   152    97    94    1
   153    97    99    1
   154    86    87    2
   155    89    88    1
   156   112   115    1
   157   112   111    1
   158    94    95    1
   159    95    96    2
   160    95   100   am
   161   100   101    1
   162   109   108    1
   163   101   102    1
   164   101   104    1
   165   108   110    1
   166   108   107    2
   167   102   103    2
   168   105   104    1
   169   105   106    1
   170   106   107    1
