@<TRIPOS>MOLECULE
tmp/1guqA00.pdb
 156 152 0 0 0
SMALL
GASTEIGER

@<TRIPOS>ATOM
      1  N         37.3940  -14.6280   63.3460 N.3    52  PHE52      -0.1227
      2  CA        37.9310  -13.4940   62.6360 C.3    52  PHE52       0.1736
      3  C         38.3720  -12.3730   63.5470 C.2    52  PHE52       0.2595
      4  O         39.0360  -11.4450   63.0860 O.2    52  PHE52      -0.2718
      5  CB        36.9430  -12.8100   61.6650 C.3    52  PHE52       0.0547
      6  CG        36.4990  -13.6260   60.4860 C.ar   52  PHE52      -0.0202
      7  CD1       37.4210  -14.3970   59.7830 C.ar   52  PHE52      -0.0042
      8  CD2       35.1610  -13.5970   60.0780 C.ar   52  PHE52      -0.0042
      9  CE1       37.0360  -15.1680   58.6910 C.ar   52  PHE52      -0.0003
     10  CE2       34.7340  -14.3510   58.9900 C.ar   52  PHE52      -0.0003
     11  CZ        35.6900  -15.1160   58.3090 C.ar   52  PHE52      -0.0000
     12  N         37.9870  -12.4320   64.8110 N.am   53  LEU53      -0.1980
     13  CA        38.3350  -11.3680   65.7500 C.3    53  LEU53       0.1596
     14  C         39.4650  -11.7020   66.7140 C.2    53  LEU53       0.2287
     15  O         39.9510  -10.8240   67.4150 O.2    53  LEU53      -0.2864
     16  CB        37.1040  -10.8550   66.5540 C.3    53  LEU53       0.0297
     17  CG        36.5000   -9.5830   65.9200 C.3    53  LEU53       0.0022
     18  CD1       36.2450   -9.7540   64.4010 C.3    53  LEU53       0.0001
     19  CD2       35.2380   -9.1720   66.6630 C.3    53  LEU53       0.0001
     20  N         41.3600  -12.2510   59.0260 N.3    59  ARG59      -0.1231
     21  CA        39.9890  -11.7760   58.8790 C.3    59  ARG59       0.1694
     22  C         39.3770  -12.3120   57.5990 C.2    59  ARG59       0.2591
     23  O         40.0380  -12.9300   56.7640 O.2    59  ARG59      -0.2718
     24  CB        39.8310  -10.2620   58.9450 C.3    59  ARG59       0.0321
     25  CG        40.3820   -9.7910   60.2700 C.3    59  ARG59       0.0489
     26  CD        39.8650   -8.4540   60.7200 C.3    59  ARG59       0.2205
     27  NE        40.1390   -7.3690   59.7760 N.pl3  59  ARG59      -0.0865
     28  CZ        41.1730   -6.5570   59.8250 C.cat  59  ARG59       0.5346
     29  NH1       42.1070   -6.6480   60.7370 N.pl3  59  ARG59       0.1354
     30  NH2       41.2530   -5.6270   58.9110 N.pl3  59  ARG59       0.1354
     31  N         38.0830  -12.0730   57.4520 N.am   60  VAL60      -0.1980
     32  CA        37.4180  -12.5560   56.2850 C.3    60  VAL60       0.1595
     33  C         38.1190  -12.0370   55.0370 C.2    60  VAL60       0.2287
     34  O         38.1160  -12.6990   53.9930 O.2    60  VAL60      -0.2864
     35  CB        35.8960  -12.2440   56.3690 C.3    60  VAL60       0.0276
     36  CG1       35.6830  -10.8090   55.9810 C.3    60  VAL60       0.0022
     37  CG2       35.1690  -13.1060   55.3680 C.3    60  VAL60       0.0022
     38  N         40.3340   -1.8830   64.9010 N.3    74  PHE74      -0.1241
     39  CA        40.7170   -1.8370   63.5000 C.3    74  PHE74       0.1605
     40  C         39.5450   -1.2710   62.7170 C.2    74  PHE74       0.2264
     41  O         38.4030   -1.3000   63.1910 O.2    74  PHE74      -0.2867
     42  CB        41.0980   -3.2030   62.9500 C.3    74  PHE74       0.0534
     43  CG        39.9550   -4.1910   63.0030 C.ar   74  PHE74      -0.0203
     44  CD1       39.7010   -4.9150   64.1720 C.ar   74  PHE74      -0.0042
     45  CD2       39.1200   -4.4040   61.9010 C.ar   74  PHE74      -0.0042
     46  CE1       38.7140   -5.9030   64.2370 C.ar   74  PHE74      -0.0003
     47  CE2       38.1300   -5.3860   61.9430 C.ar   74  PHE74      -0.0003
     48  CZ        37.9270   -6.1350   63.1040 C.ar   74  PHE74      -0.0000
     49  N         36.4850   -1.2550   60.5030 N.3    76  ASN76      -0.1225
     50  CA        35.5370   -2.2880   60.0700 C.3    76  ASN76       0.1785
     51  C         35.7720   -2.7260   58.6140 C.2    76  ASN76       0.2597
     52  O         35.9530   -1.8770   57.7360 O.2    76  ASN76      -0.2718
     53  CB        34.0980   -1.7690   60.2820 C.3    76  ASN76       0.1169
     54  CG        33.0930   -2.9340   60.3130 C.2    76  ASN76       0.2627
     55  OD1       33.0910   -3.8040   59.4170 O.2    76  ASN76      -0.2716
     56  ND2       32.2700   -3.0110   61.3670 N.am   76  ASN76      -0.0877
     57  N         35.7890   -4.0270   58.3710 N.am   77  ASP77      -0.1960
     58  CA        36.0290   -4.4810   56.9990 C.3    77  ASP77       0.1840
     59  C         34.8620   -4.1270   56.1090 C.2    77  ASP77       0.2622
     60  O         34.9700   -4.0350   54.8930 O.2    77  ASP77      -0.2715
     61  CB        36.4020   -5.9520   56.8690 C.3    77  ASP77       0.1450
     62  CG        37.7990   -6.2160   57.4540 C.2    77  ASP77       0.3671
     63  OD1       38.7300   -5.5000   57.2600 O.co2  77  ASP77      -0.2456
     64  OD2       37.8370   -7.1930   58.2780 O.co2  77  ASP77      -0.2456
     65  N         33.7280   -3.9160   56.7500 N.am   78  PHE78      -0.1974
     66  CA        32.5230   -3.5190   56.0350 C.3    78  PHE78       0.1639
     67  C         31.9620   -2.3050   56.7330 C.2    78  PHE78       0.2290
     68  O         30.9640   -2.4000   57.4530 O.2    78  PHE78      -0.2864
     69  CB        31.5400   -4.6460   56.0670 C.3    78  PHE78       0.0560
     70  CG        32.1660   -5.8290   55.4070 C.ar   78  PHE78      -0.0200
     71  CD1       32.9250   -6.7170   56.1640 C.ar   78  PHE78      -0.0042
     72  CD2       32.0010   -6.0440   54.0370 C.ar   78  PHE78      -0.0042
     73  CE1       33.5080   -7.8260   55.5630 C.ar   78  PHE78      -0.0003
     74  CE2       32.6010   -7.1300   53.3980 C.ar   78  PHE78      -0.0003
     75  CZ        33.3500   -8.0060   54.1840 C.ar   78  PHE78      -0.0000
     76  N         36.0280   -1.3640   64.7700 N.3   107  VAL107     -0.1245
     77  CA        35.7200   -2.4950   65.6190 C.3   107  VAL107      0.1561
     78  C         36.6820   -2.5450   66.7990 C.2   107  VAL107      0.2260
     79  O         37.8850   -2.3470   66.6480 O.2   107  VAL107     -0.2867
     80  CB        35.7020   -3.8330   64.8710 C.3   107  VAL107      0.0252
     81  CG1       35.5880   -5.0300   65.8180 C.3   107  VAL107      0.0019
     82  CG2       34.6620   -3.8300   63.7220 C.3   107  VAL107      0.0019
     83  N         29.4660    1.9530   70.8560 N.3   150  PHE150     -0.1241
     84  CA        28.4210    1.0330   71.2410 C.3   150  PHE150      0.1605
     85  C         28.8630   -0.3960   71.2380 C.2   150  PHE150      0.2264
     86  O         30.0250   -0.7390   70.9690 O.2   150  PHE150     -0.2867
     87  CB        27.2080    1.2730   70.3490 C.3   150  PHE150      0.0534
     88  CG        27.3480    0.8320   68.9250 C.ar  150  PHE150     -0.0203
     89  CD1       26.9960   -0.4650   68.5700 C.ar  150  PHE150     -0.0042
     90  CD2       27.8050    1.7140   67.9410 C.ar  150  PHE150     -0.0042
     91  CE1       27.0560   -0.9180   67.2450 C.ar  150  PHE150     -0.0003
     92  CE2       27.9100    1.2620   66.6210 C.ar  150  PHE150     -0.0003
     93  CZ        27.5170   -0.0360   66.2670 C.ar  150  PHE150     -0.0000
     94  N         27.0480   -4.5290   70.7140 N.3   152  ASN152     -0.1240
     95  CA        25.9340   -5.4290   70.5470 C.3   152  ASN152      0.1653
     96  C         26.3870   -6.7280   71.1640 C.2   152  ASN152      0.2266
     97  O         27.2900   -7.3910   70.6700 O.2   152  ASN152     -0.2867
     98  CB        25.5190   -5.7390   69.0770 C.3   152  ASN152      0.1155
     99  CG        24.9930   -4.4700   68.4130 C.2   152  ASN152      0.2627
    100  OD1       24.1850   -3.7400   69.0060 O.2   152  ASN152     -0.2716
    101  ND2       25.4840   -4.1690   67.1860 N.am  152  ASN152     -0.0877
    102  N         20.8340   -9.7490   70.3230 N.3   157  MET157     -0.1230
    103  CA        21.1650   -8.3490   70.0870 C.3   157  MET157      0.1702
    104  C         21.8810   -8.0460   68.7610 C.2   157  MET157      0.2593
    105  O         22.5850   -7.0340   68.5980 O.2   157  MET157     -0.2718
    106  CB        21.4490   -7.3730   71.2590 C.3   157  MET157      0.0401
    107  CG        20.3690   -7.4050   72.3390 C.3   157  MET157      0.0596
    108  SD        18.7880   -6.7140   71.8280 S.3   157  MET157     -0.1393
    109  CE        19.1370   -4.9860   71.9610 C.3   157  MET157      0.0692
    110  N         21.7070   -8.9490   67.8120 N.am  158  GLY158     -0.1942
    111  CA        22.2380   -8.7410   66.4760 C.3   158  GLY158      0.2014
    112  C         23.7290   -8.8470   66.2220 C.2   158  GLY158      0.2639
    113  O         24.1730   -8.4620   65.1320 O.2   158  GLY158     -0.2714
    114  N         24.4640   -9.3680   67.2080 N.am  159  CYS159     -0.1953
    115  CA        25.8890   -9.5530   67.0250 C.3   159  CYS159      0.1843
    116  C         26.1120  -10.5720   65.8960 C.2   159  CYS159      0.2626
    117  O         25.3990  -11.5790   65.7510 O.2   159  CYS159     -0.2714
    118  CB        26.5770   -9.9310   68.3890 C.3   159  CYS159      0.0997
    119  SG        27.1040  -11.6500   68.6610 S.3   159  CYS159     -0.0797
    120  N         27.1250  -10.2990   65.0740 N.am  160  SER160     -0.1936
    121  CA        27.4480  -11.1770   63.9520 C.3   160  SER160      0.2055
    122  C         28.7580  -11.9510   64.1370 C.2   160  SER160      0.2643
    123  O         29.1790  -12.7390   63.2730 O.2   160  SER160     -0.2714
    124  CB        27.5050  -10.3420   62.6740 C.3   160  SER160      0.2130
    125  OG        28.5840   -9.4070   62.6910 O.3   160  SER160     -0.2179
    126  N         29.4050  -11.6950   65.2770 N.am  161  ASN161     -0.1971
    127  CA        30.6700  -12.3210   65.6350 C.3   161  ASN161      0.1688
    128  C         30.6900  -12.5190   67.1400 C.2   161  ASN161      0.2292
    129  O         30.3990  -11.5850   67.8930 O.2   161  ASN161     -0.2864
    130  CB        31.8300  -11.4500   65.1710 C.3   161  ASN161      0.1181
    131  CG        33.1170  -12.2670   65.2640 C.2   161  ASN161      0.2629
    132  OD1       33.5550  -12.5130   66.3940 O.2   161  ASN161     -0.2716
    133  ND2       33.6920  -12.7470   64.1340 N.am  161  ASN161     -0.0877
    134  N         31.8900   -1.4460   68.9100 N.3   167  GLN167     -0.1245
    135  CA        32.0650   -0.7370   67.6750 C.3   167  GLN167      0.1566
    136  C         32.0160    0.7340   67.9050 C.2   167  GLN167      0.2260
    137  O         31.5130    1.1850   68.9080 O.2   167  GLN167     -0.2867
    138  CB        30.8260   -0.9750   66.7330 C.3   167  GLN167      0.0367
    139  CG        30.7570   -2.4400   66.2760 C.3   167  GLN167      0.0905
    140  CD        29.8740   -2.6730   65.0320 C.2   167  GLN167      0.2608
    141  OE1       30.2000   -2.1800   63.9170 O.2   167  GLN167     -0.2717
    142  NE2       28.8180   -3.4910   65.2150 N.am  167  GLN167     -0.0878
    143  N         30.9800    4.0240   65.3940 N.3   169  TRP169     -0.1241
    144  CA        30.6060    4.5400   64.1050 C.3   169  TRP169      0.1605
    145  C         30.6570    6.0330   64.2330 C.2   169  TRP169      0.2264
    146  O         30.0610    6.5650   65.1720 O.2   169  TRP169     -0.2867
    147  CB        29.1760    4.1650   63.5620 C.3   169  TRP169      0.0550
    148  CG        29.0380    2.7390   63.1940 C.ar  169  TRP169      0.0003
    149  CD1       29.9130    1.7230   63.4450 C.ar  169  TRP169      0.0946
    150  CD2       27.9710    2.1500   62.4590 C.ar  169  TRP169      0.0152
    151  NE1       29.4220    0.5460   62.9580 N.ar  169  TRP169     -0.2442
    152  CE2       28.2050    0.7730   62.3660 C.ar  169  TRP169      0.0810
    153  CE3       26.7950    2.6690   61.8640 C.ar  169  TRP169      0.0012
    154  CZ2       27.3140   -0.1240   61.7260 C.ar  169  TRP169      0.0191
    155  CZ3       25.9100    1.7560   61.2340 C.ar  169  TRP169      0.0001
    156  CH2       26.1580    0.4000   61.1570 C.ar  169  TRP169      0.0015
@<TRIPOS>BOND
     1    74    72   ar
     2    74    75   ar
     3    34    33    2
     4    72    70   ar
     5    75    73   ar
     6    60    59    2
     7    33    32    1
     8    37    35    1
     9    70    69    1
    10    70    71   ar
    11    73    71   ar
    12    36    35    1
    13    66    69    1
    14    66    67    1
    15    66    65    1
    16    59    65   am
    17    59    58    1
    18    32    35    1
    19    32    31    1
    20    67    68    2
    21    23    22    2
    22    61    58    1
    23    61    62    1
    24    58    57    1
    25    63    62   ar
    26    31    22   am
    27    62    64   ar
    28    22    21    1
    29    52    51    2
    30    11     9   ar
    31    11    10   ar
    32    57    51   am
    33    51    50    1
    34     9     7   ar
    35    21    24    1
    36    21    20    1
    37    30    28    1
    38    24    25    1
    39    10     8   ar
    40    55    54    2
    41    27    28    2
    42    27    26    1
    43     7     6   ar
    44    28    29    1
    45    50    53    1
    46    50    49    1
    47     8     6   ar
    48    25    26    1
    49    53    54    1
    50    54    56   am
    51     6     5    1
    52   156   155   ar
    53   156   154   ar
    54   155   153   ar
    55     5     2    1
    56   154   152   ar
    57   153   150   ar
    58    45    47   ar
    59    45    43   ar
    60    47    48   ar
    61   152   150   ar
    62   152   151   ar
    63   150   148   ar
    64     2     1    1
    65     2     3    1
    66   124   125    1
    67   124   121    1
    68    40    41    2
    69    40    39    1
    70    42    43    1
    71    42    39    1
    72   151   149   ar
    73    43    44   ar
    74     4     3    2
    75    48    46   ar
    76   148   149   ar
    77   148   147    1
    78   123   122    2
    79    39    38    1
    80     3    12   am
    81   147   144    1
    82    82    80    1
    83   141   140    2
    84   121   122    1
    85   121   120    1
    86   144   145    1
    87   144   143    1
    88   133   131   am
    89   122   126   am
    90    44    46   ar
    91   145   146    2
    92    18    17    1
    93    76    77    1
    94    12    13    1
    95    80    77    1
    96    80    81    1
    97   140   142   am
    98   140   139    1
    99   120   116   am
   100   113   112    2
   101   130   131    1
   102   130   127    1
   103   131   132    2
   104   126   127    1
   105    77    78    1
   106   127   128    1
   107    13    16    1
   108    13    14    1
   109   117   116    2
   110   116   115    1
   111    17    16    1
   112    17    19    1
   113   112   111    1
   114   112   114   am
   115    93    92   ar
   116    93    91   ar
   117   139   138    1
   118   111   110    1
   119    92    90   ar
   120    79    78    2
   121    14    15    2
   122   138   135    1
   123   115   114    1
   124   115   118    1
   125   128   129    2
   126   101    99   am
   127    91    89   ar
   128   135   136    1
   129   135   134    1
   130   110   104   am
   131   136   137    2
   132    90    88   ar
   133   118   119    1
   134    99   100    2
   135    99    98    1
   136    89    88   ar
   137   105   104    2
   138   104   103    1
   139    88    87    1
   140    98    95    1
   141   103   102    1
   142   103   106    1
   143    87    84    1
   144    95    94    1
   145    95    96    1
   146    97    96    2
   147    83    84    1
   148    86    85    2
   149    85    84    1
   150   106   107    1
   151   108   109    1
   152   108   107    1
