@<TRIPOS>MOLECULE
tmp/1guqA01.pdb
 113 113 0 0 0
SMALL
GASTEIGER

@<TRIPOS>ATOM
      1  N          1.0490   -7.1410   82.3600 N.3    27  ARG27      -0.1245
      2  CA         0.9950   -7.7570   81.0610 C.3    27  ARG27       0.1563
      3  C          1.6510   -9.1300   80.9790 C.2    27  ARG27       0.2260
      4  O          1.2040  -10.0330   80.2620 O.2    27  ARG27      -0.2867
      5  CB         1.2550   -6.7330   79.9420 C.3    27  ARG27       0.0307
      6  CG        -0.0770   -6.1190   79.4050 C.3    27  ARG27       0.0489
      7  CD        -0.7630   -7.0280   78.3810 C.3    27  ARG27       0.2205
      8  NE         0.0150   -7.2380   77.1600 N.pl3  27  ARG27      -0.0865
      9  CZ        -0.3370   -8.0050   76.1130 C.cat  27  ARG27       0.5346
     10  NH1       -1.5020   -8.6470   76.0590 N.pl3  27  ARG27       0.1354
     11  NH2        0.4950   -8.1350   75.0750 N.pl3  27  ARG27       0.1354
     12  N          0.0770  -13.0310   81.1160 N.3    30  ARG30      -0.1231
     13  CA        -0.4680  -13.7920   79.9870 C.3    30  ARG30       0.1679
     14  C          0.3850  -14.9760   79.5790 C.2    30  ARG30       0.2434
     15  O          1.6070  -14.9490   79.7730 O.2    30  ARG30      -0.2733
     16  CB        -0.6090  -12.9150   78.7580 C.3    30  ARG30       0.0321
     17  CG         0.7030  -12.7200   77.9960 C.3    30  ARG30       0.0489
     18  CD         0.5530  -11.4340   77.1980 C.3    30  ARG30       0.2205
     19  NE         1.6310  -11.1280   76.2320 N.pl3  30  ARG30      -0.0865
     20  CZ         2.6230  -10.2750   76.4600 C.cat  30  ARG30       0.5346
     21  NH1        2.7180   -9.6760   77.6340 N.pl3  30  ARG30       0.1354
     22  NH2        3.5420  -10.0350   75.5160 N.pl3  30  ARG30       0.1354
     23  N         -0.2520  -15.9930   78.9740 N.am   31  PRO31      -0.2718
     24  CA         0.4760  -17.1710   78.5290 C.3    31  PRO31       0.1535
     25  C          1.4210  -16.8330   77.3950 C.2    31  PRO31       0.2599
     26  O          1.0680  -16.1300   76.4570 O.2    31  PRO31      -0.2715
     27  CB        -0.5400  -18.1700   77.9760 C.3    31  PRO31       0.0310
     28  CG        -1.8220  -17.3770   77.7520 C.3    31  PRO31       0.0237
     29  CD        -1.6520  -16.0220   78.4340 C.3    31  PRO31       0.0939
     30  N          2.6380  -17.3350   77.4900 N.am   32  TRP32      -0.1960
     31  CA         3.6330  -17.0970   76.4630 C.3    32  TRP32       0.1771
     32  C          3.8550  -18.3600   75.6660 C.2    32  TRP32       0.2619
     33  O          4.4280  -19.3260   76.1690 O.2    32  TRP32      -0.2715
     34  CB         5.0220  -16.5700   76.9510 C.3    32  TRP32       0.0590
     35  CG         5.9850  -16.3310   75.8070 C.ar   32  TRP32       0.0006
     36  CD1        7.0370  -17.1340   75.4030 C.ar   32  TRP32       0.0946
     37  CD2        5.8870  -15.2570   74.8690 C.ar   32  TRP32       0.0152
     38  NE1        7.6060  -16.6000   74.2800 N.ar   32  TRP32      -0.2442
     39  CE2        6.9600  -15.4180   73.9590 C.ar   32  TRP32       0.0810
     40  CE3        5.0260  -14.1450   74.7770 C.ar   32  TRP32       0.0012
     41  CZ2        7.1260  -14.5220   72.9160 C.ar   32  TRP32       0.0191
     42  CZ3        5.2400  -13.2020   73.7680 C.ar   32  TRP32       0.0001
     43  CH2        6.2830  -13.4150   72.8520 C.ar   32  TRP32       0.0015
     44  N          3.3950  -18.3360   74.4270 N.am   33  GLN33      -0.1977
     45  CA         3.5620  -19.4720   73.5590 C.3    33  GLN33       0.1601
     46  C          4.3450  -19.0820   72.3260 C.2    33  GLN33       0.2287
     47  O          4.1570  -19.6450   71.2450 O.2    33  GLN33      -0.2864
     48  CB         2.2370  -20.1630   73.2290 C.3    33  GLN33       0.0394
     49  CG         1.6120  -20.7190   74.5090 C.3    33  GLN33       0.0908
     50  CD         0.2630  -21.2990   74.1880 C.2    33  GLN33       0.2608
     51  OE1        0.0180  -22.5190   74.3350 O.2    33  GLN33      -0.2717
     52  NE2       -0.6010  -20.4050   73.7040 N.am   33  GLN33      -0.0878
     53  N         11.6620   -9.7590   75.5200 N.3   310  LYS310     -0.1231
     54  CA        10.6350   -8.8030   75.1960 C.3   310  LYS310      0.1693
     55  C         10.6980   -8.5260   73.6870 C.2   310  LYS310      0.2592
     56  O         11.7780   -8.4650   73.0950 O.2   310  LYS310     -0.2718
     57  CB        10.9670   -7.5090   75.8870 C.3   310  LYS310      0.0285
     58  CG        10.1710   -6.2590   75.4440 C.3   310  LYS310      0.0035
     59  CD         8.6260   -6.3610   75.6370 C.3   310  LYS310      0.0206
     60  CE         7.8470   -5.1910   75.0170 C.3   310  LYS310      0.1093
     61  NZ         6.4030   -5.3350   75.2570 N.3   310  LYS310     -0.1314
     62  N          9.5500   -8.3520   73.0280 N.am  311  PHE311     -0.1976
     63  CA         9.5990   -8.0470   71.6100 C.3   311  PHE311      0.1639
     64  C          8.9360   -6.7130   71.3980 C.2   311  PHE311      0.2290
     65  O          7.7670   -6.5400   71.7670 O.2   311  PHE311     -0.2864
     66  CB         8.8130   -9.0650   70.7930 C.3   311  PHE311      0.0560
     67  CG         9.4310  -10.4250   70.5940 C.ar  311  PHE311     -0.0200
     68  CD1        9.4300  -11.3990   71.5900 C.ar  311  PHE311     -0.0042
     69  CD2        9.9940  -10.7250   69.3510 C.ar  311  PHE311     -0.0042
     70  CE1        9.9960  -12.6610   71.4050 C.ar  311  PHE311     -0.0003
     71  CE2       10.5660  -11.9770   69.1290 C.ar  311  PHE311     -0.0003
     72  CZ        10.5320  -12.9370   70.1430 C.ar  311  PHE311     -0.0000
     73  N          7.2850   -4.8850   69.0710 N.3   313  VAL313     -0.1231
     74  CA         6.6350   -5.0840   67.7710 C.3   313  VAL313      0.1692
     75  C          5.4070   -4.2430   67.4200 C.2   313  VAL313      0.2593
     76  O          5.4280   -2.9880   67.4450 O.2   313  VAL313     -0.2718
     77  CB         6.4660   -6.5880   67.4830 C.3   313  VAL313      0.0266
     78  CG1        7.8230   -7.3190   67.3990 C.3   313  VAL313      0.0020
     79  CG2        5.7270   -7.3290   68.6140 C.3   313  VAL313      0.0020
     80  N          4.3420   -4.9680   67.0230 N.am  314  GLY314     -0.1942
     81  CA         3.1030   -4.3290   66.5760 C.3   314  GLY314      0.2014
     82  C          2.7580   -2.9960   67.2390 C.2   314  GLY314      0.2639
     83  O          2.9620   -1.8900   66.7040 O.2   314  GLY314     -0.2714
     84  N          2.1630   -3.0760   68.4350 N.am  315  TYR315     -0.1959
     85  CA         1.7950   -1.8370   69.1100 C.3   315  TYR315      0.1771
     86  C          2.9660   -0.8660   69.3070 C.2   315  TYR315      0.2619
     87  O          2.8920    0.3670   69.0950 O.2   315  TYR315     -0.2715
     88  CB         1.0270   -2.1460   70.4170 C.3   315  TYR315      0.0574
     89  CG         0.5070   -0.8650   71.0260 C.ar  315  TYR315     -0.0198
     90  CD1       -0.7050   -0.2790   70.6530 C.ar  315  TYR315     -0.0009
     91  CD2        1.2750   -0.2180   71.9970 C.ar  315  TYR315     -0.0009
     92  CE1       -1.1750    0.9070   71.2340 C.ar  315  TYR315      0.0417
     93  CE2        0.8040    0.9500   72.5900 C.ar  315  TYR315      0.0417
     94  CZ        -0.4110    1.5290   72.2220 C.ar  315  TYR315      0.1957
     95  OH        -0.7760    2.7190   72.8140 O.3   315  TYR315     -0.2866
     96  N          4.0940   -1.4400   69.7220 N.am  316  GLU316     -0.1977
     97  CA         5.2440   -0.6000   69.9440 C.3   316  GLU316      0.1602
     98  C          5.6920    0.1050   68.6800 C.2   316  GLU316      0.2287
     99  O          6.1180    1.2530   68.7330 O.2   316  GLU316     -0.2864
    100  CB         6.3700   -1.4800   70.4850 C.3   316  GLU316      0.0415
    101  CG         6.0120   -2.0260   71.8470 C.3   316  GLU316      0.1163
    102  CD         5.2820   -3.3300   71.8770 C.2   316  GLU316      0.3649
    103  OE1        4.9830   -3.8330   70.6950 O.co2 316  GLU316     -0.2457
    104  OE2        5.0140   -3.8620   72.9400 O.co2 316  GLU316     -0.2457
    105  N          5.8240   -0.0510   74.9490 N.3   322  GLN322     -0.1245
    106  CA         5.1020   -0.5970   76.0470 C.3   322  GLN322      0.1566
    107  C          6.0180   -1.5070   76.8570 C.2   322  GLN322      0.2260
    108  O          6.9350   -2.1510   76.3110 O.2   322  GLN322     -0.2867
    109  CB         3.8940   -1.3690   75.4340 C.3   322  GLN322      0.0367
    110  CG         2.8890   -1.9780   76.4370 C.3   322  GLN322      0.0905
    111  CD         3.2500   -3.3720   76.9470 C.2   322  GLN322      0.2608
    112  OE1        4.1010   -4.0700   76.3790 O.2   322  GLN322     -0.2717
    113  NE2        2.5910   -3.8020   78.0410 N.am  322  GLN322     -0.0878
@<TRIPOS>BOND
     1    81    80    1
     2    81    82    1
     3    83    82    2
     4    80    75   am
     5    82    84   am
     6    78    77    1
     7    75    76    2
     8    75    74    1
     9    77    74    1
    10    77    79    1
    11    74    73    1
    12    84    85    1
    13    98    99    2
    14    98    97    1
    15    87    86    2
    16    85    86    1
    17    85    88    1
    18    71    69   ar
    19    71    72   ar
    20    86    96   am
    21    69    67   ar
    22    96    97    1
    23    97   100    1
    24    72    70   ar
    25    88    89    1
    26   100   101    1
    27    67    66    1
    28    67    68   ar
    29    90    89   ar
    30    90    92   ar
    31   103   102   ar
    32    66    63    1
    33    89    91   ar
    34    92    94   ar
    35    47    46    2
    36    64    63    1
    37    64    65    2
    38    70    68   ar
    39    63    62    1
    40   101   102    1
    41   102   104   ar
    42    91    93   ar
    43    94    93   ar
    44    94    95    1
    45    46    45    1
    46    43    41   ar
    47    43    42   ar
    48    41    39   ar
    49    62    55   am
    50    56    55    2
    51    48    45    1
    52    48    49    1
    53    45    44    1
    54    55    54    1
    55    52    50   am
    56    42    40   ar
    57    39    38   ar
    58    39    37   ar
    59    50    51    2
    60    50    49    1
    61    38    36   ar
    62    44    32   am
    63    40    37   ar
    64    37    35   ar
    65   105   106    1
    66    60    61    1
    67    60    59    1
    68    11     9    1
    69    54    53    1
    70    54    57    1
    71    36    35   ar
    72   109   106    1
    73   109   110    1
    74    58    59    1
    75    58    57    1
    76    22    20    1
    77    32    33    2
    78    32    31    1
    79    35    34    1
    80   106   107    1
    81    10     9    1
    82     9     8    2
    83    19    20    2
    84    19    18    1
    85   108   107    2
    86   112   111    2
    87   110   111    1
    88    26    25    2
    89    20    21    1
    90    31    34    1
    91    31    30    1
    92   111   113   am
    93     8     7    1
    94    18    17    1
    95    25    30   am
    96    25    24    1
    97    28    27    1
    98    28    29    1
    99    27    24    1
   100    17    16    1
   101     7     6    1
   102    29    23    1
   103    24    23    1
   104    16    13    1
   105    23    14   am
   106     6     5    1
   107    14    15    2
   108    14    13    1
   109     5     2    1
   110    13    12    1
   111     4     3    2
   112     3     2    1
   113     2     1    1
