@<TRIPOS>MOLECULE
tmp/1guxB00.pdb
 186 179 0 0 0
SMALL
GASTEIGER

@<TRIPOS>ATOM
      1  N         33.5410   42.1040   78.7640 N.3    65  TYR65      -0.1227
      2  CA        32.6910   43.0120   79.5170 C.3    65  TYR65       0.1736
      3  C         32.2550   42.4650   80.9000 C.2    65  TYR65       0.2596
      4  O         32.2870   43.2020   81.8790 O.2    65  TYR65      -0.2718
      5  CB        31.4840   43.4260   78.6790 C.3    65  TYR65       0.0548
      6  CG        30.6240   44.4510   79.3640 C.ar   65  TYR65      -0.0200
      7  CD1       30.9570   45.7940   79.3420 C.ar   65  TYR65      -0.0009
      8  CD2       29.5430   44.0540   80.1310 C.ar   65  TYR65      -0.0009
      9  CE1       30.2470   46.7210   80.0790 C.ar   65  TYR65       0.0417
     10  CE2       28.8240   44.9700   80.8760 C.ar   65  TYR65       0.0417
     11  CZ        29.1700   46.2910   80.8550 C.ar   65  TYR65       0.1957
     12  OH        28.4180   47.1800   81.6240 O.3    65  TYR65      -0.2866
     13  N         31.8360   41.1970   80.9400 N.am   66  GLY66      -0.1957
     14  CA        31.3950   40.5340   82.1620 C.3    66  GLY66       0.1869
     15  C         32.4590   40.4250   83.2510 C.2    66  GLY66       0.2309
     16  O         32.1730   40.6850   84.4290 O.2    66  GLY66      -0.2863
     17  N         33.2530   43.6650   84.6740 N.3    69  LYS69      -0.1231
     18  CA        32.1070   44.0630   85.4830 C.3    69  LYS69       0.1693
     19  C         32.3150   43.5720   86.9310 C.2    69  LYS69       0.2591
     20  O         32.2380   44.3960   87.8500 O.2    69  LYS69      -0.2718
     21  CB        30.8040   43.4910   84.9320 C.3    69  LYS69       0.0285
     22  CG        30.0340   44.4490   84.0870 C.3    69  LYS69       0.0035
     23  CD        29.7390   45.7160   84.8510 C.3    69  LYS69       0.0206
     24  CE        28.2830   46.1150   84.7150 C.3    69  LYS69       0.1093
     25  NZ        28.1060   47.5910   84.8400 N.3    69  LYS69      -0.1314
     26  N         32.5520   42.2650   87.1510 N.am   70  VAL70      -0.1980
     27  CA        32.7980   41.7700   88.5330 C.3    70  VAL70       0.1595
     28  C         34.0210   42.4470   89.1480 C.2    70  VAL70       0.2287
     29  O         33.9840   42.8660   90.2930 O.2    70  VAL70      -0.2864
     30  CB        33.0580   40.2160   88.6940 C.3    70  VAL70       0.0276
     31  CG1       31.7990   39.4830   89.0660 C.3    70  VAL70       0.0022
     32  CG2       33.7590   39.6070   87.4870 C.3    70  VAL70       0.0022
     33  N         35.0300   45.2090   88.7770 N.3    72  ASN72      -0.1240
     34  CA        34.7850   46.6370   88.9170 C.3    72  ASN72       0.1653
     35  C         35.8840   47.4730   88.3160 C.2    72  ASN72       0.2266
     36  O         36.4770   48.3370   88.9760 O.2    72  ASN72      -0.2867
     37  CB        34.5280   47.0090   90.3770 C.3    72  ASN72       0.1155
     38  CG        33.2820   46.3330   90.9300 C.2    72  ASN72       0.2627
     39  OD1       33.3540   45.2570   91.5270 O.2    72  ASN72      -0.2716
     40  ND2       32.1250   46.9520   90.7120 N.am   72  ASN72      -0.0877
     41  N         33.6870   50.3730   79.4060 N.3    76  LYS76      -0.1231
     42  CA        32.4180   50.4120   78.6850 C.3    76  LYS76       0.1693
     43  C         32.3770   49.4850   77.4720 C.2    76  LYS76       0.2592
     44  O         33.4000   49.2640   76.8000 O.2    76  LYS76      -0.2718
     45  CB        32.0970   51.8410   78.2480 C.3    76  LYS76       0.0285
     46  CG        31.4700   52.7140   79.3330 C.3    76  LYS76       0.0035
     47  CD        30.6450   53.8610   78.7200 C.3    76  LYS76       0.0206
     48  CE        29.7280   54.5270   79.7560 C.3    76  LYS76       0.1093
     49  NZ        28.7690   55.5360   79.1660 N.3    76  LYS76      -0.1314
     50  N         31.1960   48.9130   77.2290 N.am   77  PHE77      -0.1962
     51  CA        30.9710   48.0330   76.0890 C.3    77  PHE77       0.1771
     52  C         31.2340   48.8430   74.7980 C.2    77  PHE77       0.2619
     53  O         31.8740   48.3540   73.8800 O.2    77  PHE77      -0.2715
     54  CB        29.5430   47.4710   76.1180 C.3    77  PHE77       0.0574
     55  CG        29.4510   45.9910   75.7710 C.ar   77  PHE77      -0.0200
     56  CD1       30.1260   45.4670   74.6540 C.ar   77  PHE77      -0.0042
     57  CD2       28.6850   45.1200   76.5630 C.ar   77  PHE77      -0.0042
     58  CE1       30.0390   44.1080   74.3400 C.ar   77  PHE77      -0.0003
     59  CE2       28.5930   43.7570   76.2550 C.ar   77  PHE77      -0.0003
     60  CZ        29.2740   43.2480   75.1400 C.ar   77  PHE77      -0.0000
     61  N         30.8280   50.1110   74.7830 N.am   78  LYS78      -0.1977
     62  CA        31.0510   50.9780   73.6280 C.3    78  LYS78       0.1596
     63  C         32.5380   51.0670   73.2820 C.2    78  LYS78       0.2287
     64  O         32.9200   51.1130   72.1120 O.2    78  LYS78      -0.2864
     65  CB        30.5450   52.3900   73.9020 C.3    78  LYS78       0.0298
     66  CG        30.7370   53.3320   72.7130 C.3    78  LYS78       0.0038
     67  CD        31.0090   54.7540   73.1590 C.3    78  LYS78       0.0206
     68  CE        32.3580   54.8740   73.8490 C.3    78  LYS78       0.1093
     69  NZ        32.6900   56.2980   74.1550 N.3    78  LYS78      -0.1314
     70  N         33.6040   47.6750   71.7380 N.3    81  VAL81      -0.1245
     71  CA        33.0380   47.6150   70.3930 C.3    81  VAL81       0.1561
     72  C         33.8050   48.5270   69.3990 C.2    81  VAL81       0.2260
     73  O         34.0420   48.1690   68.2350 O.2    81  VAL81      -0.2867
     74  CB        31.5330   47.9430   70.5650 C.3    81  VAL81       0.0252
     75  CG1       31.0420   48.9600   69.5870 C.3    81  VAL81       0.0019
     76  CG2       30.7120   46.6580   70.6220 C.3    81  VAL81       0.0019
     77  N         28.3580   43.4040   66.0160 N.3    95  PHE95      -0.1227
     78  CA        27.9130   43.8750   67.3240 C.3    95  PHE95       0.1736
     79  C         26.6180   44.6370   67.2450 C.2    95  PHE95       0.2595
     80  O         25.9070   44.7540   68.2360 O.2    95  PHE95      -0.2718
     81  CB        28.9890   44.6730   68.1060 C.3    95  PHE95       0.0547
     82  CG        29.5650   45.8750   67.3740 C.ar   95  PHE95      -0.0202
     83  CD1       28.8810   47.0840   67.3290 C.ar   95  PHE95      -0.0042
     84  CD2       30.8240   45.8070   66.7960 C.ar   95  PHE95      -0.0042
     85  CE1       29.4420   48.1940   66.7300 C.ar   95  PHE95      -0.0003
     86  CE2       31.3930   46.9150   66.1970 C.ar   95  PHE95      -0.0003
     87  CZ        30.7040   48.1110   66.1620 C.ar   95  PHE95      -0.0000
     88  N         26.2810   45.1240   66.0590 N.am   96  LYS96      -0.1980
     89  CA        25.0470   45.8720   65.9130 C.3    96  LYS96       0.1596
     90  C         23.8830   44.9650   65.6480 C.2    96  LYS96       0.2287
     91  O         22.7460   45.3110   65.9930 O.2    96  LYS96      -0.2864
     92  CB        25.1670   46.9310   64.8160 C.3    96  LYS96       0.0298
     93  CG        26.1210   48.0560   65.1880 C.3    96  LYS96       0.0038
     94  CD        25.8590   49.3210   64.3960 C.3    96  LYS96       0.0206
     95  CE        26.4570   50.5190   65.1180 C.3    96  LYS96       0.1093
     96  NZ        25.9960   50.6250   66.5570 N.3    96  LYS96      -0.1314
     97  N         21.2780   44.7280   69.3940 N.3   107  SER107     -0.1202
     98  CA        22.6930   44.9760   69.5830 C.3   107  SER107      0.2020
     99  C         23.3110   43.9400   70.4890 C.2   107  SER107      0.2619
    100  O         22.6080   43.1260   71.0810 O.2   107  SER107     -0.2717
    101  CB        22.9670   46.3910   70.1060 C.3   107  SER107      0.2103
    102  OG        22.7590   46.4980   71.4960 O.3   107  SER107     -0.2182
    103  N         24.6360   43.9400   70.5520 N.am  108  ILE108     -0.1965
    104  CA        25.3620   42.9810   71.3880 C.3   108  ILE108      0.1727
    105  C         25.0650   43.2170   72.8870 C.2   108  ILE108      0.2616
    106  O         25.0770   42.2750   73.6960 O.2   108  ILE108     -0.2715
    107  CB        26.8830   43.0060   71.1080 C.3   108  ILE108      0.0290
    108  CG1       27.5450   41.7710   71.7490 C.3   108  ILE108      0.0022
    109  CG2       27.4800   44.3430   71.5470 C.3   108  ILE108      0.0023
    110  CD1       28.9980   41.6110   71.4400 C.3   108  ILE108      0.0001
    111  N         24.7550   44.4630   73.2320 N.am  109  ILE109     -0.1977
    112  CA        24.4180   44.7980   74.6060 C.3   109  ILE109      0.1596
    113  C         23.1160   44.0810   74.9730 C.2   109  ILE109      0.2287
    114  O         22.9980   43.5550   76.0770 O.2   109  ILE109     -0.2864
    115  CB        24.3190   46.3030   74.7990 C.3   109  ILE109      0.0276
    116  CG1       25.7130   46.9020   74.6870 C.3   109  ILE109      0.0022
    117  CG2       23.7170   46.6330   76.1450 C.3   109  ILE109      0.0022
    118  CD1       25.7590   48.4060   74.7870 C.3   109  ILE109      0.0001
    119  N         23.9720   40.5090   75.5050 N.3   112  TYR112     -0.1227
    120  CA        24.6710   40.3780   76.7870 C.3   112  TYR112      0.1736
    121  C         23.6780   40.3440   77.9860 C.2   112  TYR112      0.2595
    122  O         23.5480   39.3280   78.6690 O.2   112  TYR112     -0.2718
    123  CB        25.6700   41.5320   76.9640 C.3   112  TYR112      0.0548
    124  CG        26.3320   41.5480   78.3250 C.ar  112  TYR112     -0.0200
    125  CD1       27.3530   40.6380   78.6370 C.ar  112  TYR112     -0.0009
    126  CD2       25.8890   42.4280   79.3380 C.ar  112  TYR112     -0.0009
    127  CE1       27.9180   40.5960   79.9410 C.ar  112  TYR112      0.0417
    128  CE2       26.4400   42.4010   80.6460 C.ar  112  TYR112      0.0417
    129  CZ        27.4520   41.4860   80.9460 C.ar  112  TYR112      0.1957
    130  OH        28.0110   41.4610   82.2210 O.3   112  TYR112     -0.2866
    131  N         22.9340   41.4280   78.1760 N.am  113  ASN113     -0.1960
    132  CA        21.9840   41.5350   79.2810 C.3   113  ASN113      0.1819
    133  C         20.9080   40.4780   79.3000 C.2   113  ASN113      0.2622
    134  O         20.6370   39.8960   80.3510 O.2   113  ASN113     -0.2715
    135  CB        21.3170   42.9060   79.2860 C.3   113  ASN113      0.1195
    136  CG        22.2780   44.0050   79.6070 C.2   113  ASN113      0.2630
    137  OD1       23.2610   43.7910   80.3050 O.2   113  ASN113     -0.2716
    138  ND2       22.0040   45.2020   79.1080 N.am  113  ASN113     -0.0877
    139  N         20.3520   40.1690   78.1290 N.am  114  SER114     -0.1950
    140  CA        19.2610   39.2080   78.0250 C.3   114  SER114      0.1924
    141  C         19.5540   37.7580   77.8020 C.2   114  SER114      0.2314
    142  O         18.6820   36.9270   78.0500 O.2   114  SER114     -0.2863
    143  CB        18.2430   39.6540   76.9550 C.3   114  SER114      0.2116
    144  OG        17.6680   40.9230   77.2700 O.3   114  SER114     -0.2180
    145  N         24.6760   37.0220   79.7660 N.3   117  MET117     -0.1230
    146  CA        24.8400   37.2420   81.2020 C.3   117  MET117      0.1702
    147  C         23.8810   36.4140   82.0770 C.2   117  MET117      0.2592
    148  O         24.2610   35.9190   83.1590 O.2   117  MET117     -0.2718
    149  CB        24.8030   38.7320   81.4920 C.3   117  MET117      0.0401
    150  CG        25.0720   39.0980   82.9330 C.3   117  MET117      0.0596
    151  SD        23.5220   39.2100   83.7880 S.3   117  MET117     -0.1393
    152  CE        22.9190   40.7380   83.1350 C.3   117  MET117      0.0692
    153  N         22.6930   36.1420   81.5450 N.am  118  GLN118     -0.1979
    154  CA        21.7200   35.3230   82.2550 C.3   118  GLN118      0.1601
    155  C         22.2820   33.9240   82.4050 C.2   118  GLN118      0.2287
    156  O         22.3520   33.3770   83.5110 O.2   118  GLN118     -0.2864
    157  CB        20.3770   35.2700   81.5010 C.3   118  GLN118      0.0394
    158  CG        19.6940   36.6330   81.3530 C.3   118  GLN118      0.0908
    159  CD        19.5460   37.4030   82.6830 C.2   118  GLN118      0.2608
    160  OE1       19.2650   36.8140   83.7190 O.2   118  GLN118     -0.2717
    161  NE2       19.7360   38.7180   82.6430 N.am  118  GLN118     -0.0878
    162  N         25.8680   34.1360   84.4900 N.3   121  LYS121     -0.1245
    163  CA        25.9500   34.8730   85.7590 C.3   121  LYS121      0.1561
    164  C         26.7100   34.1650   86.9170 C.2   121  LYS121      0.2260
    165  O         27.6760   34.7240   87.4520 O.2   121  LYS121     -0.2867
    166  CB        24.5530   35.2800   86.2300 C.3   121  LYS121      0.0271
    167  CG        24.5900   36.2810   87.3510 C.3   121  LYS121      0.0035
    168  CD        23.2850   36.2740   88.1080 C.3   121  LYS121      0.0206
    169  CE        22.1240   36.8640   87.2840 C.3   121  LYS121      0.1093
    170  NZ        22.0590   38.3740   87.3290 N.3   121  LYS121     -0.1314
    171  N         30.3660   33.7480   86.0670 N.3   124  ILE124     -0.1231
    172  CA        31.0230   35.0540   86.0980 C.3   124  ILE124      0.1692
    173  C         31.2330   35.5570   87.5270 C.2   124  ILE124      0.2591
    174  O         32.2670   36.1560   87.8470 O.2   124  ILE124     -0.2718
    175  CB        30.1920   36.1390   85.3340 C.3   124  ILE124      0.0266
    176  CG1       30.1530   35.8510   83.8150 C.3   124  ILE124      0.0019
    177  CG2       30.7680   37.5440   85.5830 C.3   124  ILE124      0.0020
    178  CD1       29.2880   36.8470   83.0290 C.3   124  ILE124      0.0001
    179  N         30.2060   35.3830   88.3500 N.am  125  LEU125     -0.1980
    180  CA        30.2530   35.8250   89.7440 C.3   125  LEU125      0.1596
    181  C         31.3410   35.1240   90.5600 C.2   125  LEU125      0.2287
    182  O         31.8600   35.6890   91.5440 O.2   125  LEU125     -0.2864
    183  CB        28.8790   35.6270   90.3960 C.3   125  LEU125      0.0297
    184  CG        28.0470   36.8800   90.6030 C.3   125  LEU125      0.0022
    185  CD1       28.6680   38.0530   89.9110 C.3   125  LEU125      0.0001
    186  CD2       26.6320   36.6580   90.1750 C.3   125  LEU125      0.0001
@<TRIPOS>BOND
     1    94    95    1
     2    94    93    1
     3    92    93    1
     4    92    89    1
     5    95    96    1
     6    90    89    1
     7    90    91    2
     8    89    88    1
     9    77    78    1
    10    88    79   am
    11    87    86   ar
    12    87    85   ar
    13    86    84   ar
    14    85    83   ar
    15    84    82   ar
    16    79    78    1
    17    79    80    2
    18    78    81    1
    19    83    82   ar
    20    82    81    1
    21    73    72    2
    22    97    98    1
    23    72    71    1
    24    98   101    1
    25    98    99    1
    26    75    74    1
    27   101   102    1
    28    71    74    1
    29    71    70    1
    30    99   103   am
    31    99   100    2
    32   103   104    1
    33    74    76    1
    34   107   104    1
    35   107   109    1
    36   107   108    1
    37   104   105    1
    38   110   108    1
    39    64    63    2
    40    66    67    1
    41    66    65    1
    42   105   111   am
    43   105   106    2
    44    67    68    1
    45   111   112    1
    46    63    62    1
    47    62    65    1
    48    62    61    1
    49    68    69    1
    50    53    52    2
    51    58    56   ar
    52    58    60   ar
    53   112   115    1
    54   112   113    1
    55    56    55   ar
    56   116   118    1
    57   116   115    1
    58    61    52   am
    59    52    51    1
    60   115   117    1
    61   113   114    2
    62    60    59   ar
    63   119   120    1
    64    55    54    1
    65    55    57   ar
    66    51    54    1
    67    51    50    1
    68    59    57   ar
    69   120   123    1
    70   120   121    1
    71    44    43    2
    72   143   144    1
    73   143   140    1
    74   123   124    1
    75    50    43   am
    76    43    42    1
    77   141   140    1
    78   141   142    2
    79   121   131   am
    80   121   122    2
    81   140   139    1
    82   139   133   am
    83   131   132    1
    84    45    42    1
    85    45    46    1
    86   124   125   ar
    87   124   126   ar
    88   125   127   ar
    89     5     6    1
    90     5     2    1
    91    42    41    1
    92    47    46    1
    93    47    48    1
    94     1     2    1
    95   138   136   am
    96    49    48    1
    97   132   135    1
    98   132   133    1
    99   135   136    1
   100   133   134    2
   101   126   128   ar
   102     7     6   ar
   103     7     9   ar
   104     6     8   ar
   105     2     3    1
   106   136   137    2
   107   145   146    1
   108   127   129   ar
   109     9    11   ar
   110     8    10   ar
   111   128   129   ar
   112    11    10   ar
   113    11    12    1
   114     3    13   am
   115     3     4    2
   116    13    14    1
   117   129   130    1
   118   146   149    1
   119   146   147    1
   120   158   157    1
   121   158   159    1
   122   149   150    1
   123   157   154    1
   124   153   147   am
   125   153   154    1
   126   147   148    2
   127    14    15    1
   128   154   155    1
   129   155   156    2
   130   161   159   am
   131   159   160    2
   132   150   151    1
   133   178   176    1
   134   152   151    1
   135    15    16    2
   136   176   175    1
   137    22    23    1
   138    22    21    1
   139   162   163    1
   140    17    18    1
   141    24    25    1
   142    24    23    1
   143    21    18    1
   144   175   177    1
   145   175   172    1
   146    18    19    1
   147   163   166    1
   148   163   164    1
   149   171   172    1
   150   172   173    1
   151   166   167    1
   152   164   165    2
   153    19    26   am
   154    19    20    2
   155    26    27    1
   156   169   170    1
   157   169   168    1
   158   167   168    1
   159    32    30    1
   160   173   174    2
   161   173   179   am
   162    35    34    1
   163    35    36    2
   164   179   180    1
   165    27    30    1
   166    27    28    1
   167    30    31    1
   168    33    34    1
   169    34    37    1
   170    28    29    2
   171   180   183    1
   172   180   181    1
   173   185   184    1
   174   186   184    1
   175    37    38    1
   176   183   184    1
   177   181   182    2
   178    40    38   am
   179    38    39    2
