@<TRIPOS>MOLECULE
tmp/1gv7A00.pdb
 102 99 0 0 0
SMALL
GASTEIGER

@<TRIPOS>ATOM
      1  N         11.9290   24.3430   13.5100 N.3     7  HIS7       -0.1226
      2  CA        11.7830   23.5300   12.3120 C.3     7  HIS7        0.1752
      3  C         11.9180   22.0530   12.7010 C.2     7  HIS7        0.2596
      4  O         11.2380   21.1860   12.1510 O.2     7  HIS7       -0.2718
      5  CB        12.8550   23.8770   11.2950 C.3     7  HIS7        0.0759
      6  CG        12.8860   22.9530   10.1190 C.ar    7  HIS7        0.0818
      7  ND1       11.9130   22.9580    9.1440 N.ar    7  HIS7       -0.2268
      8  CD2       13.7650   21.9830    9.7700 C.ar    7  HIS7        0.1154
      9  CE1       12.1930   22.0330    8.2420 C.ar    7  HIS7        0.1986
     10  NE2       13.3110   21.4260    8.5990 N.ar    7  HIS7       -0.2212
     11  N         12.8050   21.7810   13.6520 N.am    8  PHE8       -0.1976
     12  CA        13.0240   20.4200   14.1400 C.3     8  PHE8        0.1639
     13  C         11.7440   19.8570   14.7990 C.2     8  PHE8        0.2290
     14  O         11.3250   18.7360   14.5160 O.2     8  PHE8       -0.2864
     15  CB        14.1520   20.4110   15.1630 C.3     8  PHE8        0.0560
     16  CG        14.3230   19.0930   15.8640 C.ar    8  PHE8       -0.0200
     17  CD1       14.8690   17.9990   15.1970 C.ar    8  PHE8       -0.0042
     18  CD2       13.9180   18.9420   17.1880 C.ar    8  PHE8       -0.0042
     19  CE1       15.0070   16.7730   15.8390 C.ar    8  PHE8       -0.0003
     20  CE2       14.0500   17.7250   17.8350 C.ar    8  PHE8       -0.0003
     21  CZ        14.5990   16.6320   17.1550 C.ar    8  PHE8       -0.0000
     22  N          9.0100   19.0460   12.3840 N.3    11  GLN11      -0.1231
     23  CA         9.2240   17.8770   11.5710 C.3    11  GLN11       0.1698
     24  C          9.4070   16.5690   12.3230 C.2    11  GLN11       0.2592
     25  O          9.1720   15.4990   11.7570 O.2    11  GLN11      -0.2718
     26  CB        10.4210   18.1180   10.6650 C.3    11  GLN11       0.0381
     27  CG        10.4840   17.1450    9.5320 C.3    11  GLN11       0.0905
     28  CD        11.2470   17.6970    8.3650 C.2    11  GLN11       0.2608
     29  OE1       11.0690   18.8580    7.9870 O.2    11  GLN11      -0.2717
     30  NE2       12.0910   16.8690    7.7670 N.am   11  GLN11      -0.0878
     31  N          9.7880   16.6390   13.5940 N.am   12  HIS12      -0.1976
     32  CA        10.0320   15.4160   14.3500 C.3    12  HIS12       0.1656
     33  C          9.3840   15.3230   15.7160 C.2    12  HIS12       0.2291
     34  O          9.7370   14.4420   16.5000 O.2    12  HIS12      -0.2864
     35  CB        11.5480   15.2100   14.5190 C.3    12  HIS12       0.0771
     36  CG        12.2860   15.1200   13.2220 C.ar   12  HIS12       0.0820
     37  ND1       12.0910   14.0920   12.3290 N.ar   12  HIS12      -0.2267
     38  CD2       13.1550   15.9730   12.6280 C.ar   12  HIS12       0.1154
     39  CE1       12.8010   14.3150   11.2380 C.ar   12  HIS12       0.1986
     40  NE2       13.4550   15.4520   11.3930 N.ar   12  HIS12      -0.2212
     41  N          7.4830   12.9250    1.1720 N.3    39  LYS39      -0.1245
     42  CA         8.7630   12.6550    1.8230 C.3    39  LYS39       0.1561
     43  C          8.9080   11.1290    1.9190 C.2    39  LYS39       0.2260
     44  O          7.9990   10.4450    2.3980 O.2    39  LYS39      -0.2867
     45  CB         8.7730   13.3030    3.2080 C.3    39  LYS39       0.0271
     46  CG        10.1050   13.2720    3.9310 C.3    39  LYS39       0.0035
     47  CD        10.1550   14.3770    4.9930 C.3    39  LYS39       0.0206
     48  CE        11.4150   14.2860    5.8480 C.3    39  LYS39       0.1093
     49  NZ        12.6040   13.9810    5.0120 N.3    39  LYS39      -0.1314
     50  N         10.6780    9.1330    3.8750 N.3    41  ILE41      -0.1245
     51  CA        10.6530    8.5760    5.2220 C.3    41  ILE41       0.1561
     52  C         10.8270    9.6610    6.2690 C.2    41  ILE41       0.2260
     53  O         11.6260   10.5830    6.0940 O.2    41  ILE41      -0.2867
     54  CB        11.7690    7.5150    5.4050 C.3    41  ILE41       0.0252
     55  CG1       11.7470    6.9670    6.8350 C.3    41  ILE41       0.0019
     56  CG2       13.1270    8.1330    5.1000 C.3    41  ILE41       0.0019
     57  CD1       12.7330    5.8370    7.0820 C.3    41  ILE41       0.0001
     58  N         18.5540   20.2740   16.3780 N.3   114  VAL114     -0.1231
     59  CA        18.1980   20.9050   15.1120 C.3   114  VAL114      0.1692
     60  C         18.0090   19.9150   13.9690 C.2   114  VAL114      0.2592
     61  O         17.4150   20.2430   12.9460 O.2   114  VAL114     -0.2718
     62  CB        19.2660   21.9590   14.6860 C.3   114  VAL114      0.0266
     63  CG1       19.2750   23.1060   15.6660 C.3   114  VAL114      0.0020
     64  CG2       20.6550   21.3220   14.6480 C.3   114  VAL114      0.0020
     65  N         18.5280   18.7060   14.1330 N.am  115  HIS115     -0.1962
     66  CA        18.3980   17.6830   13.1000 C.3   115  HIS115      0.1787
     67  C         18.2820   16.3360   13.7770 C.2   115  HIS115      0.2620
     68  O         18.8360   16.1360   14.8580 O.2   115  HIS115     -0.2715
     69  CB        19.6260   17.6560   12.1880 C.3   115  HIS115      0.0785
     70  CG        19.8640   18.9330   11.4470 C.ar  115  HIS115      0.0821
     71  ND1       19.1620   19.2800   10.3140 N.ar  115  HIS115     -0.2267
     72  CD2       20.7230   19.9520   11.6830 C.ar  115  HIS115      0.1154
     73  CE1       19.5790   20.4560    9.8810 C.ar  115  HIS115      0.1986
     74  NE2       20.5260   20.8860   10.6950 N.ar  115  HIS115     -0.2212
     75  N         17.5490   15.4260   13.1420 N.am  116  LEU116     -0.1977
     76  CA        17.3800   14.0670   13.6360 C.3   116  LEU116      0.1596
     77  C         18.2010   13.1860   12.6900 C.2   116  LEU116      0.2287
     78  O         18.0500   13.2740   11.4720 O.2   116  LEU116     -0.2864
     79  CB        15.8950   13.6700   13.5880 C.3   116  LEU116      0.0297
     80  CG        15.4330   12.2920   14.0760 C.3   116  LEU116      0.0022
     81  CD1       15.7550   11.2460   13.0350 C.3   116  LEU116      0.0001
     82  CD2       16.0800   11.9530   15.4170 C.3   116  LEU116      0.0001
     83  N         18.1760   10.6620   10.8890 N.3   118  GLN118     -0.1245
     84  CA        17.2160    9.7430   10.2610 C.3   118  GLN118      0.1566
     85  C         17.7320    8.3840    9.8070 C.2   118  GLN118      0.2260
     86  O         17.0250    7.3790    9.9140 O.2   118  GLN118     -0.2867
     87  CB        16.5530   10.4220    9.0550 C.3   118  GLN118      0.0367
     88  CG        15.3610   11.2990    9.3890 C.3   118  GLN118      0.0905
     89  CD        14.1280   10.5060    9.8370 C.2   118  GLN118      0.2608
     90  OE1       13.1290   11.0910   10.2370 O.2   118  GLN118     -0.2717
     91  NE2       14.2000    9.1780    9.7660 N.am  118  GLN118     -0.0878
     92  N         15.8830    3.7700    9.0450 N.3   122  ARG122     -0.1245
     93  CA        15.6210    3.1950    7.7230 C.3   122  ARG122      0.1563
     94  C         15.5850    1.6710    7.8370 C.2   122  ARG122      0.2260
     95  O         15.5660    1.1240    8.9520 O.2   122  ARG122     -0.2867
     96  CB        16.7040    3.6290    6.7200 C.3   122  ARG122      0.0307
     97  CG        16.6430    5.1760    6.6520 C.3   122  ARG122      0.0489
     98  CD        17.6440    5.6250    5.6070 C.3   122  ARG122      0.2205
     99  NE        17.7740    7.0710    5.7430 N.pl3 122  ARG122     -0.0865
    100  CZ        18.4360    7.9130    4.9450 C.cat 122  ARG122      0.5346
    101  NH1       19.1100    7.5010    3.8790 N.pl3 122  ARG122      0.1354
    102  NH2       18.4290    9.2130    5.2440 N.pl3 122  ARG122      0.1354
@<TRIPOS>BOND
     1    41    42    1
     2    42    43    1
     3    42    45    1
     4    43    44    2
     5    45    46    1
     6    50    51    1
     7   101   100    1
     8    46    47    1
     9   100   102    1
    10   100    99    2
    11    47    48    1
    12    49    48    1
    13    56    54    1
    14    51    54    1
    15    51    52    1
    16    54    55    1
    17    98    99    1
    18    98    97    1
    19    53    52    2
    20    97    96    1
    21    96    93    1
    22    55    57    1
    23    93    94    1
    24    93    92    1
    25    30    28   am
    26    94    95    2
    27    29    28    2
    28     9    10   ar
    29     9     7   ar
    30    28    27    1
    31    10     8   ar
    32    87    88    1
    33    87    84    1
    34     7     6   ar
    35    88    89    1
    36    27    26    1
    37    91    89   am
    38     8     6   ar
    39    85    86    2
    40    85    84    1
    41    89    90    2
    42    73    71   ar
    43    73    74   ar
    44     6     5    1
    45    84    83    1
    46    71    70   ar
    47    26    23    1
    48    74    72   ar
    49    39    40   ar
    50    39    37   ar
    51     5     2    1
    52    40    38   ar
    53    70    72   ar
    54    70    69    1
    55    78    77    2
    56    23    24    1
    57    23    22    1
    58    25    24    2
    59     4     3    2
    60    69    66    1
    61     2     3    1
    62     2     1    1
    63    24    31   am
    64    37    36   ar
    65    38    36   ar
    66    77    76    1
    67     3    11   am
    68    61    60    2
    69    81    80    1
    70    66    67    1
    71    66    65    1
    72    75    76    1
    73    75    67   am
    74    36    35    1
    75    79    76    1
    76    79    80    1
    77    31    32    1
    78    11    12    1
    79    67    68    2
    80    60    65   am
    81    60    59    1
    82    80    82    1
    83    12    13    1
    84    12    15    1
    85    32    35    1
    86    32    33    1
    87    14    13    2
    88    64    62    1
    89    62    59    1
    90    62    63    1
    91    59    58    1
    92    15    16    1
    93    17    19   ar
    94    17    16   ar
    95    33    34    2
    96    19    21   ar
    97    16    18   ar
    98    21    20   ar
    99    18    20   ar
