@<TRIPOS>MOLECULE
tmp/1gveA01.pdb
 137 132 0 0 0
SMALL
GASTEIGER

@<TRIPOS>ATOM
      1  N         32.4780    6.9750    1.7450 N.3    10  MET10      -0.1245
      2  CA        32.1990    5.5400    1.8990 C.3    10  MET10       0.1570
      3  C         31.2980    4.9470    0.8000 C.2    10  MET10       0.2261
      4  O         31.4460    3.7760    0.4090 O.2    10  MET10      -0.2867
      5  CB        31.5200    5.3420    3.2580 C.3    10  MET10       0.0387
      6  CG        31.2140    3.9870    3.6510 C.3    10  MET10       0.0595
      7  SD        30.9510    3.9860    5.4270 S.3    10  MET10      -0.1393
      8  CE        29.2360    4.1520    5.5060 C.3    10  MET10       0.0692
      9  N         39.2930    0.0060    2.4140 N.3    41  VAL41      -0.1231
     10  CA        38.1720   -0.9170    2.2600 C.3    41  VAL41       0.1692
     11  C         36.9100   -0.3070    1.6200 C.2    41  VAL41       0.2592
     12  O         36.0150   -1.0370    1.2300 O.2    41  VAL41      -0.2718
     13  CB        37.7780   -1.5790    3.5980 C.3    41  VAL41       0.0266
     14  CG1       38.9410   -2.3900    4.1690 C.3    41  VAL41       0.0020
     15  CG2       37.2220   -0.5420    4.6170 C.3    41  VAL41       0.0020
     16  N         36.8000    1.0140    1.5260 N.am   42  TYR42      -0.1976
     17  CA        35.5300    1.5780    1.0770 C.3    42  TYR42       0.1639
     18  C         35.2340    1.2120   -0.3710 C.2    42  TYR42       0.2290
     19  O         36.0810    1.3720   -1.2360 O.2    42  TYR42      -0.2864
     20  CB        35.4590    3.1060    1.2670 C.3    42  TYR42       0.0560
     21  CG        35.3640    3.5690    2.7210 C.ar   42  TYR42      -0.0198
     22  CD1       35.0290    2.7110    3.7330 C.ar   42  TYR42      -0.0009
     23  CD2       35.5610    4.8960    3.0210 C.ar   42  TYR42      -0.0009
     24  CE1       34.9440    3.1510    5.0580 C.ar   42  TYR42       0.0417
     25  CE2       35.4550    5.3610    4.3050 C.ar   42  TYR42       0.0417
     26  CZ        35.1570    4.4900    5.3290 C.ar   42  TYR42       0.1957
     27  OH        35.0740    4.9160    6.6400 O.3    42  TYR42      -0.2866
     28  N         41.0710   -6.0650    8.0540 N.3    74  MET74      -0.1245
     29  CA        39.9370   -6.7800    7.4780 C.3    74  MET74       0.1570
     30  C         40.3020   -7.1930    6.0530 C.2    74  MET74       0.2261
     31  O         41.4260   -6.9470    5.5830 O.2    74  MET74      -0.2867
     32  CB        38.6180   -6.0120    7.5740 C.3    74  MET74       0.0387
     33  CG        38.5110   -4.7950    6.7920 C.3    74  MET74       0.0595
     34  SD        36.9440   -3.8830    7.1420 S.3    74  MET74      -0.1393
     35  CE        35.7130   -4.8690    6.3050 C.3    74  MET74       0.0692
     36  N         42.2770    2.1680   11.0740 N.3   106  HIS106     -0.1226
     37  CA        40.8180    2.1940   10.9180 C.3   106  HIS106      0.1752
     38  C         40.1020    1.6770   12.1600 C.2   106  HIS106      0.2596
     39  O         39.0380    2.1630   12.5090 O.2   106  HIS106     -0.2718
     40  CB        40.4180    1.3780    9.6570 C.3   106  HIS106      0.0759
     41  CG        39.0780    1.6920    9.0800 C.ar  106  HIS106      0.0818
     42  ND1       38.7810    1.4580    7.7380 N.ar  106  HIS106     -0.2268
     43  CD2       37.9370    2.1420    9.6460 C.ar  106  HIS106      0.1154
     44  CE1       37.5200    1.7840    7.5090 C.ar  106  HIS106      0.1986
     45  NE2       36.9810    2.1980    8.6500 N.ar  106  HIS106     -0.2212
     46  N         40.6040    0.5710   12.7120 N.am  107  PHE107     -0.1976
     47  CA        40.0940    0.0090   13.9560 C.3   107  PHE107      0.1639
     48  C         41.1640   -0.9720   14.4690 C.2   107  PHE107      0.2290
     49  O         42.0390   -1.3560   13.7210 O.2   107  PHE107     -0.2864
     50  CB        38.6990   -0.6510   13.8140 C.3   107  PHE107      0.0560
     51  CG        38.5730   -1.6360   12.7230 C.ar  107  PHE107     -0.0200
     52  CD1       38.7880   -2.9660   12.9820 C.ar  107  PHE107     -0.0042
     53  CD2       38.1140   -1.2620   11.4790 C.ar  107  PHE107     -0.0042
     54  CE1       38.6030   -3.9140   11.9800 C.ar  107  PHE107     -0.0003
     55  CE2       37.9480   -2.1830   10.4910 C.ar  107  PHE107     -0.0003
     56  CZ        38.1980   -3.5080   10.7420 C.ar  107  PHE107     -0.0000
     57  N         38.1950    4.1760   16.4080 N.3   137  ASN137     -0.1240
     58  CA        37.6090    3.0440   17.0620 C.3   137  ASN137      0.1653
     59  C         38.5210    2.3770   18.1090 C.2   137  ASN137      0.2266
     60  O         38.2280    1.2920   18.5500 O.2   137  ASN137     -0.2867
     61  CB        37.1350    2.0210   16.0290 C.3   137  ASN137      0.1155
     62  CG        36.1120    2.6210   15.0720 C.2   137  ASN137      0.2627
     63  OD1       35.0400    3.0870   15.5070 O.2   137  ASN137     -0.2716
     64  ND2       36.4100    2.5850   13.7480 N.am  137  ASN137     -0.0877
     65  N         38.9060    9.6260   14.8880 N.3   162  GLN162     -0.1245
     66  CA        37.6160    9.5800   14.2240 C.3   162  GLN162      0.1566
     67  C         36.7190    8.5980   14.9610 C.2   162  GLN162      0.2260
     68  O         37.0600    7.4200   15.0750 O.2   162  GLN162     -0.2867
     69  CB        37.7990    9.1760   12.7600 C.3   162  GLN162      0.0367
     70  CG        36.5020    9.1090   12.0040 C.3   162  GLN162      0.0905
     71  CD        36.6270    8.8250   10.5150 C.2   162  GLN162      0.2608
     72  OE1       35.8790    7.9900   10.0120 O.2   162  GLN162     -0.2717
     73  NE2       37.5760    9.4790    9.8360 N.am  162  GLN162     -0.0878
     74  N         31.8500   10.5680   13.1830 N.3   190  PHE190     -0.1241
     75  CA        31.0990    9.8300   12.1770 C.3   190  PHE190      0.1605
     76  C         29.7550    9.4220   12.7240 C.2   190  PHE190      0.2264
     77  O         29.4920    9.4820   13.9200 O.2   190  PHE190     -0.2867
     78  CB        31.8840    8.6650   11.5510 C.3   190  PHE190      0.0534
     79  CG        32.1580    7.4920   12.4350 C.ar  190  PHE190     -0.0203
     80  CD1       31.2060    6.4990   12.5930 C.ar  190  PHE190     -0.0042
     81  CD2       33.4090    7.2770   12.9790 C.ar  190  PHE190     -0.0042
     82  CE1       31.4810    5.4040   13.3160 C.ar  190  PHE190     -0.0003
     83  CE2       33.6800    6.1680   13.7050 C.ar  190  PHE190     -0.0003
     84  CZ        32.7270    5.2230   13.8720 C.ar  190  PHE190     -0.0000
     85  N         26.9180   -3.8350    5.5950 N.3   221  PHE221     -0.1241
     86  CA        27.1600   -3.6960    7.0270 C.3   221  PHE221      0.1605
     87  C         25.8750   -3.3680    7.7930 C.2   221  PHE221      0.2264
     88  O         25.9170   -2.7900    8.8730 O.2   221  PHE221     -0.2867
     89  CB        28.2450   -2.6280    7.2570 C.3   221  PHE221      0.0534
     90  CG        29.5790   -3.0120    6.6640 C.ar  221  PHE221     -0.0203
     91  CD1       30.0800   -2.3640    5.5420 C.ar  221  PHE221     -0.0042
     92  CD2       30.3040   -4.0650    7.1980 C.ar  221  PHE221     -0.0042
     93  CE1       31.3050   -2.7420    4.9840 C.ar  221  PHE221     -0.0003
     94  CE2       31.5220   -4.4480    6.6420 C.ar  221  PHE221     -0.0003
     95  CZ        32.0220   -3.7810    5.5340 C.ar  221  PHE221     -0.0000
     96  N         25.5800   -4.7310   11.4550 N.3   224  LEU224     -0.1231
     97  CA        26.3660   -3.9010   12.3560 C.3   224  LEU224      0.1693
     98  C         25.5390   -2.6910   12.7910 C.2   224  LEU224      0.2592
     99  O         25.5650   -2.3000   13.9540 O.2   224  LEU224     -0.2718
    100  CB        27.6550   -3.4640   11.6490 C.3   224  LEU224      0.0284
    101  CG        28.5440   -2.4340   12.3430 C.3   224  LEU224      0.0019
    102  CD1       28.8870   -2.8900   13.7660 C.3   224  LEU224      0.0001
    103  CD2       29.8130   -2.1970   11.5130 C.3   224  LEU224      0.0001
    104  N         24.7900   -2.0980   11.8630 N.am  225  TYR225     -0.1976
    105  CA        23.9480   -0.9360   12.1870 C.3   225  TYR225      0.1639
    106  C         22.6890   -1.3090   12.9970 C.2   225  TYR225      0.2290
    107  O         22.2440   -0.5470   13.8620 O.2   225  TYR225     -0.2864
    108  CB        23.6330   -0.1140   10.9270 C.3   225  TYR225      0.0560
    109  CG        24.8180    0.7710   10.6360 C.ar  225  TYR225     -0.0198
    110  CD1       25.9330    0.2760    9.9700 C.ar  225  TYR225     -0.0009
    111  CD2       24.8680    2.0720   11.1280 C.ar  225  TYR225     -0.0009
    112  CE1       27.0610    1.0660    9.7720 C.ar  225  TYR225      0.0417
    113  CE2       25.9770    2.8530   10.9410 C.ar  225  TYR225      0.0417
    114  CZ        27.0720    2.3600   10.2540 C.ar  225  TYR225      0.1957
    115  OH        28.2020    3.1690   10.0830 O.3   225  TYR225     -0.2866
    116  N         23.8270   -1.7310   16.4140 N.3   228  ARG228     -0.1245
    117  CA        24.3040   -0.4690   16.9440 C.3   228  ARG228      0.1563
    118  C         23.1800    0.4380   17.4010 C.2   228  ARG228      0.2260
    119  O         23.2180    0.9720   18.5140 O.2   228  ARG228     -0.2867
    120  CB        25.1160    0.2440   15.8570 C.3   228  ARG228      0.0307
    121  CG        26.0160    1.2900   16.3480 C.3   228  ARG228      0.0489
    122  CD        26.8950    1.8830   15.2470 C.3   228  ARG228      0.2205
    123  NE        28.0910    1.0690   15.0420 N.pl3 228  ARG228     -0.0865
    124  CZ        28.9900    1.2930   14.1080 C.cat 228  ARG228      0.5346
    125  NH1       30.0470    0.4840   13.9930 N.pl3 228  ARG228      0.1354
    126  NH2       28.8400    2.3040   13.2710 N.pl3 228  ARG228      0.1354
    127  N         36.3430   -0.9390   19.4950 N.3   324  ARG324     -0.1245
    128  CA        36.2390   -2.3280   19.0760 C.3   324  ARG324      0.1563
    129  C         37.5140   -3.0660   19.3150 C.2   324  ARG324      0.2260
    130  O         38.5240   -2.5200   19.6370 O.2   324  ARG324     -0.2867
    131  CB        35.9630   -2.4340   17.5680 C.3   324  ARG324      0.0307
    132  CG        35.0920   -1.4150   16.9910 C.3   324  ARG324      0.0489
    133  CD        34.9610   -1.4730   15.4560 C.3   324  ARG324      0.2205
    134  NE        34.2450   -0.2900   15.0410 N.pl3 324  ARG324     -0.0865
    135  CZ        33.9840    0.0680   13.7960 C.cat 324  ARG324      0.5346
    136  NH1       33.3240    1.2120   13.5860 N.pl3 324  ARG324      0.1354
    137  NH2       34.3740   -0.6950   12.7910 N.pl3 324  ARG324      0.1354
@<TRIPOS>BOND
     1    19    18    2
     2    18    17    1
     3     4     3    2
     4     3     2    1
     5    17    20    1
     6    17    16    1
     7    12    11    2
     8    20    21    1
     9    16    11   am
    10    11    10    1
    11     1     2    1
    12     2     5    1
    13    10     9    1
    14    10    13    1
    15    21    23   ar
    16    21    22   ar
    17    23    25   ar
    18     5     6    1
    19    13    14    1
    20    13    15    1
    21     6     7    1
    22    22    24   ar
    23    25    26   ar
    24    93    95   ar
    25    93    91   ar
    26    24    26   ar
    27    26    27    1
    28     7     8    1
    29    95    94   ar
    30    91    90   ar
    31    31    30    2
    32    85    86    1
    33    30    29    1
    34    35    34    1
    35    94    92   ar
    36    90    92   ar
    37    90    89    1
    38    33    34    1
    39    33    32    1
    40    86    89    1
    41    86    87    1
    42    29    32    1
    43    29    28    1
    44    44    42   ar
    45    44    45   ar
    46    42    41   ar
    47    87    88    2
    48    45    43   ar
    49    41    43   ar
    50    41    40    1
    51    40    37    1
    52   112   110   ar
    53   112   114   ar
    54    73    71   am
    55   110   109   ar
    56    72    71    2
    57   115   114    1
    58   114   113   ar
    59    55    56   ar
    60    55    53   ar
    61    71    70    1
    62   109   108    1
    63   109   111   ar
    64    56    54   ar
    65    37    36    1
    66    37    38    1
    67   108   105    1
    68   113   111   ar
    69    96    97    1
    70    53    51   ar
    71   103   101    1
    72    78    75    1
    73    78    79    1
    74   100   101    1
    75   100    97    1
    76   104   105    1
    77   104    98   am
    78    54    52   ar
    79    70    69    1
    80    38    39    2
    81    38    46   am
    82    75    76    1
    83    75    74    1
    84   105   106    1
    85   101   102    1
    86    97    98    1
    87    79    80   ar
    88    79    81   ar
    89    80    82   ar
    90    46    47    1
    91    51    52   ar
    92    51    50    1
    93    76    77    2
    94    69    66    1
    95   137   135    1
    96    98    99    2
    97    81    83   ar
    98   106   107    2
    99   126   124    1
   100    82    84   ar
   101   136   135    1
   102    83    84   ar
   103    49    48    2
   104    64    62   am
   105   135   134    2
   106    50    47    1
   107    47    48    1
   108   125   124    1
   109   124   123    2
   110    66    65    1
   111    66    67    1
   112    67    68    2
   113   134   133    1
   114   123   122    1
   115    62    63    2
   116    62    61    1
   117   122   121    1
   118   133   132    1
   119   120   121    1
   120   120   117    1
   121    61    58    1
   122    57    58    1
   123   116   117    1
   124   117   118    1
   125   132   131    1
   126    58    59    1
   127   118   119    2
   128   131   128    1
   129    59    60    2
   130   128   129    1
   131   128   127    1
   132   129   130    2
