@<TRIPOS>MOLECULE
tmp/1gvfB00.pdb
 92 89 0 0 0
SMALL
GASTEIGER

@<TRIPOS>ATOM
      1  N         10.0710   39.3400   65.3140 N.3    23  ASN23      -0.1240
      2  CA         8.6270   39.2480   65.1750 C.3    23  ASN23       0.1653
      3  C          8.0290   40.6240   65.4340 C.2    23  ASN23       0.2266
      4  O          8.3560   41.3120   66.4210 O.2    23  ASN23      -0.2867
      5  CB         8.1110   38.1400   66.0800 C.3    23  ASN23       0.1155
      6  CG         8.4850   36.7680   65.4880 C.2    23  ASN23       0.2627
      7  OD1        9.6240   36.2580   65.6490 O.2    23  ASN23      -0.2716
      8  ND2        7.5690   36.0530   64.8240 N.am   23  ASN23      -0.0877
      9  N          6.2710   33.4270   59.6260 N.3    81  ASP81      -0.1225
     10  CA         6.8910   32.5330   60.6210 C.3    81  ASP81       0.1805
     11  C          5.8980   31.4770   61.0850 C.2    81  ASP81       0.2597
     12  O          4.7180   31.7810   61.2750 O.2    81  ASP81      -0.2718
     13  CB         7.3990   33.3990   61.7610 C.3    81  ASP81       0.1424
     14  CG         8.3060   32.7460   62.7790 C.2    81  ASP81       0.3668
     15  OD1        8.9660   31.7410   62.4050 O.co2  81  ASP81      -0.2456
     16  OD2        8.3490   33.1870   63.9770 O.co2  81  ASP81      -0.2456
     17  N          6.3800   30.2530   61.1900 N.am   82  HIS82      -0.1975
     18  CA         5.5790   29.1250   61.6800 C.3    82  HIS82       0.1656
     19  C          4.2200   29.0400   61.0140 C.2    82  HIS82       0.2291
     20  O          3.2080   28.7890   61.6940 O.2    82  HIS82      -0.2864
     21  CB         5.3990   29.1070   63.2080 C.3    82  HIS82       0.0771
     22  CG         6.7300   29.0050   63.9260 C.ar   82  HIS82       0.0820
     23  ND1        7.4390   27.8230   63.9830 N.ar   82  HIS82      -0.2267
     24  CD2        7.5460   29.8710   64.5850 C.ar   82  HIS82       0.1154
     25  CE1        8.5930   27.9950   64.6500 C.ar   82  HIS82       0.1986
     26  NE2        8.6770   29.2520   65.0330 N.ar   82  HIS82      -0.2212
     27  N         14.3620   26.9630   72.5300 N.3   170  ALA170     -0.1231
     28  CA        12.9340   26.9970   72.7750 C.3   170  ALA170      0.1694
     29  C         12.3920   28.4010   72.6740 C.2   170  ALA170      0.2592
     30  O         13.0640   29.3780   73.0260 O.2   170  ALA170     -0.2718
     31  CB        12.6760   26.4500   74.1810 C.3   170  ALA170      0.0304
     32  N         11.1550   28.4850   72.2010 N.am  171  HIS171     -0.1962
     33  CA        10.4820   29.7690   72.2200 C.3   171  HIS171      0.1787
     34  C         10.2860   30.2440   73.6490 C.2   171  HIS171      0.2620
     35  O          9.9780   29.3890   74.4850 O.2   171  HIS171     -0.2715
     36  CB         9.1120   29.6930   71.5420 C.3   171  HIS171      0.0785
     37  CG         9.1700   29.5300   70.0580 C.ar  171  HIS171      0.0821
     38  ND1        8.1820   28.8860   69.3550 N.ar  171  HIS171     -0.2267
     39  CD2       10.0550   29.9270   69.1330 C.ar  171  HIS171      0.1154
     40  CE1        8.4790   28.8880   68.0550 C.ar  171  HIS171      0.1986
     41  NE2        9.6060   29.5140   67.9060 N.ar  171  HIS171     -0.2212
     42  N         10.3990   31.5410   73.8970 N.am  172  GLY172     -0.1954
     43  CA        10.1730   32.0530   75.2250 C.3   172  GLY172      0.1869
     44  C         11.4450   32.0830   76.0610 C.2   172  GLY172      0.2309
     45  O         12.5580   31.8770   75.5870 O.2   172  GLY172     -0.2863
     46  N         15.8720   29.3210   65.8590 N.3   199  HIS199     -0.1226
     47  CA        14.6660   29.7370   66.5590 C.3   199  HIS199      0.1752
     48  C         14.9110   29.8520   68.0520 C.2   199  HIS199      0.2596
     49  O         15.8990   29.3030   68.5610 O.2   199  HIS199     -0.2718
     50  CB        13.5210   28.7430   66.3050 C.3   199  HIS199      0.0759
     51  CG        12.9410   28.9000   64.9360 C.ar  199  HIS199      0.0818
     52  ND1       11.6640   29.3570   64.7250 N.ar  199  HIS199     -0.2268
     53  CD2       13.4370   28.6600   63.6900 C.ar  199  HIS199      0.1154
     54  CE1       11.4000   29.3980   63.4500 C.ar  199  HIS199      0.1986
     55  NE2       12.4790   28.9720   62.7740 N.ar  199  HIS199     -0.2212
     56  N         14.0070   30.5740   68.7350 N.am  200  GLY200     -0.1957
     57  CA        14.0550   30.5800   70.1900 C.3   200  GLY200      0.1869
     58  C         15.1930   31.3620   70.7980 C.2   200  GLY200      0.2309
     59  O         15.6330   31.1110   71.9200 O.2   200  GLY200     -0.2863
     60  N         15.5350   34.4570   71.9630 N.3   202  SER202     -0.1217
     61  CA        15.3520   35.2340   73.1840 C.3   202  SER202      0.1889
     62  C         15.8670   34.4380   74.3720 C.2   202  SER202      0.2288
     63  O         15.5630   33.2590   74.4990 O.2   202  SER202     -0.2866
     64  CB        13.8850   35.5450   73.4490 C.3   202  SER202      0.2089
     65  OG        13.3500   36.4950   72.5530 O.3   202  SER202     -0.2183
     66  N         16.1220   34.2340   65.1490 N.3   221  ASN221     -0.1225
     67  CA        14.7730   34.6950   65.4020 C.3   221  ASN221      0.1785
     68  C         14.5660   35.1540   66.8590 C.2   221  ASN221      0.2597
     69  O         14.8590   34.3880   67.7880 O.2   221  ASN221     -0.2718
     70  CB        13.7630   33.6020   65.1370 C.3   221  ASN221      0.1169
     71  CG        13.6400   33.0790   63.7420 C.2   221  ASN221      0.2627
     72  OD1       14.4190   33.4000   62.8320 O.2   221  ASN221     -0.2716
     73  ND2       12.6390   32.2360   63.5430 N.am  221  ASN221     -0.0877
     74  N         14.0350   36.3530   66.9930 N.am  222  VAL222     -0.1966
     75  CA        13.8060   36.9650   68.2970 C.3   222  VAL222      0.1727
     76  C         12.3960   37.5350   68.3330 C.2   222  VAL222      0.2616
     77  O         12.0150   38.3670   67.4970 O.2   222  VAL222     -0.2715
     78  CB        14.8340   38.0590   68.5850 C.3   222  VAL222      0.0290
     79  CG1       14.5110   38.8230   69.8700 C.3   222  VAL222      0.0023
     80  CG2       16.2650   37.4770   68.6830 C.3   222  VAL222      0.0023
     81  N         11.5850   37.1360   69.3000 N.am  223  ALA223     -0.1963
     82  CA        10.2320   37.6440   69.5250 C.3   223  ALA223      0.1728
     83  C         10.0120   38.0510   70.9660 C.2   223  ALA223      0.2616
     84  O          9.6780   39.1880   71.2700 O.2   223  ALA223     -0.2715
     85  CB         9.2330   36.5770   69.0980 C.3   223  ALA223      0.0334
     86  N         10.1860   37.1200   71.8700 N.am  224  THR224     -0.1951
     87  CA         9.8260   37.3270   73.2780 C.3   224  THR224      0.1897
     88  C         10.4860   38.4990   73.9520 C.2   224  THR224      0.2313
     89  O          9.8350   39.3050   74.6420 O.2   224  THR224     -0.2863
     90  CB        10.1560   36.0450   74.0790 C.3   224  THR224      0.1794
     91  OG1        9.3440   34.9750   73.6020 O.3   224  THR224     -0.2208
     92  CG2        9.9000   36.2620   75.5670 C.3   224  THR224      0.0378
@<TRIPOS>BOND
     1     9    10    1
     2    10    11    1
     3    10    13    1
     4    19    18    1
     5    19    20    2
     6    11    17   am
     7    11    12    2
     8    17    18    1
     9    18    21    1
    10    13    14    1
    11    15    14   ar
    12    55    54   ar
    13    55    53   ar
    14    14    16   ar
    15    72    71    2
    16    21    22    1
    17    54    52   ar
    18    73    71   am
    19    53    51   ar
    20    71    70    1
    21    22    23   ar
    22    22    24   ar
    23    23    25   ar
    24    24    26   ar
    25    25    26   ar
    26    52    51   ar
    27     8     6   am
    28    51    50    1
    29    70    67    1
    30    66    67    1
    31     2     1    1
    32     2     3    1
    33     2     5    1
    34    67    68    1
    35     3     4    2
    36     6     7    2
    37     6     5    1
    38    46    47    1
    39    50    47    1
    40    47    48    1
    41    68    74   am
    42    68    69    2
    43    74    75    1
    44    77    76    2
    45    41    40   ar
    46    41    39   ar
    47    48    49    2
    48    48    56   am
    49    40    38   ar
    50    75    76    1
    51    75    78    1
    52    76    81   am
    53    78    80    1
    54    78    79    1
    55    56    57    1
    56    85    82    1
    57    39    37   ar
    58    81    82    1
    59    38    37   ar
    60    82    83    1
    61    37    36    1
    62    57    58    1
    63    58    59    2
    64    83    84    2
    65    83    86   am
    66    36    33    1
    67    86    87    1
    68    60    61    1
    69    32    33    1
    70    32    29   am
    71    33    34    1
    72    27    28    1
    73    65    64    1
    74    29    28    1
    75    29    30    2
    76    28    31    1
    77    61    64    1
    78    61    62    1
    79    87    88    1
    80    87    90    1
    81    91    90    1
    82    34    42   am
    83    34    35    2
    84    42    43    1
    85    88    89    2
    86    90    92    1
    87    62    63    2
    88    43    44    1
    89    45    44    2
