@<TRIPOS>MOLECULE
tmp/1gvgA01.pdb
 166 160 0 0 0
SMALL
GASTEIGER

@<TRIPOS>ATOM
      1  N          8.7150    8.3010   11.5180 N.3   113  LEU113     -0.1231
      2  CA         7.3310    8.5420   11.0900 C.3   113  LEU113      0.1693
      3  C          6.4460    9.1020   12.2170 C.2   113  LEU113      0.2591
      4  O          6.3530    8.5340   13.3010 O.2   113  LEU113     -0.2718
      5  CB         6.7680    7.2040   10.5850 C.3   113  LEU113      0.0284
      6  CG         5.3030    7.1910   10.1560 C.3   113  LEU113      0.0019
      7  CD1        5.1170    8.1520    8.9800 C.3   113  LEU113      0.0001
      8  CD2        4.9120    5.7930    9.7460 C.3   113  LEU113      0.0001
      9  N          5.8010   10.2300   11.9540 N.am  114  ARG114     -0.1980
     10  CA         4.9300   10.8700   12.9430 C.3   114  ARG114      0.1597
     11  C          5.6020   11.0060   14.3090 C.2   114  ARG114      0.2287
     12  O          5.0200   10.6890   15.3420 O.2   114  ARG114     -0.2864
     13  CB         3.6210   10.1060   13.1180 C.3   114  ARG114      0.0334
     14  CG         2.7770    9.9790   11.8490 C.3   114  ARG114      0.0492
     15  CD         2.1110   11.2920   11.4370 C.3   114  ARG114      0.2205
     16  NE         0.9920   10.9760   10.5530 N.pl3 114  ARG114     -0.0865
     17  CZ        -0.2910   11.0300   10.9010 C.cat 114  ARG114      0.5346
     18  NH1       -0.6650   11.4080   12.1310 N.pl3 114  ARG114      0.1354
     19  NH2       -1.1950   10.6830   10.0070 N.pl3 114  ARG114      0.1354
     20  N          1.6720   11.9310   -1.4310 N.3   131  LEU131     -0.1231
     21  CA         1.9240   10.6170   -0.8420 C.3   131  LEU131      0.1693
     22  C          1.8150   10.7070    0.6710 C.2   131  LEU131      0.2593
     23  O          2.7690   10.3990    1.3910 O.2   131  LEU131     -0.2718
     24  CB         3.3260   10.1050   -1.2100 C.3   131  LEU131      0.0284
     25  CG         3.5900    9.9700   -2.7080 C.3   131  LEU131      0.0019
     26  CD1        5.0490    9.5920   -2.9280 C.3   131  LEU131      0.0001
     27  CD2        2.6850    8.9170   -3.3150 C.3   131  LEU131      0.0001
     28  N          0.6630   11.1440    1.1530 N.am  132  SER132     -0.1938
     29  CA         0.4650   11.2540    2.5780 C.3   132  SER132      0.2055
     30  C         -0.9660   10.9880    3.0180 C.2   132  SER132      0.2643
     31  O         -1.9350   11.1430    2.2540 O.2   132  SER132     -0.2714
     32  CB         0.8910   12.6310    3.0820 C.3   132  SER132      0.2130
     33  OG        -0.0600   13.6110    2.7410 O.3   132  SER132     -0.2179
     34  N         -1.0710   10.5720    4.2660 N.am  133  SER133     -0.1949
     35  CA        -2.3520   10.2630    4.8700 C.3   133  SER133      0.1924
     36  C         -3.2560   11.4930    4.9730 C.2   133  SER133      0.2314
     37  O         -4.4590   11.3600    5.2170 O.2   133  SER133     -0.2863
     38  CB        -2.1290    9.6990    6.2660 C.3   133  SER133      0.2116
     39  OG        -1.5600   10.7140    7.0940 O.3   133  SER133     -0.2180
     40  N         -5.2810    8.3010   -2.8820 N.3   140  LEU140     -0.1231
     41  CA        -4.0590    7.7930   -2.2380 C.3   140  LEU140      0.1693
     42  C         -3.9730    6.3570   -2.7770 C.2   140  LEU140      0.2592
     43  O         -4.7130    5.4860   -2.3480 O.2   140  LEU140     -0.2718
     44  CB        -4.2030    7.8020   -0.7040 C.3   140  LEU140      0.0284
     45  CG        -2.9440    7.3120    0.0250 C.3   140  LEU140      0.0019
     46  CD1       -1.8010    8.2990   -0.1400 C.3   140  LEU140      0.0001
     47  CD2       -3.2790    7.1490    1.4850 C.3   140  LEU140      0.0001
     48  N         -3.0800    6.1390   -3.7370 N.am  141  GLU141     -0.1966
     49  CA        -2.9580    4.8580   -4.4230 C.3   141  GLU141      0.1733
     50  C         -2.4490    3.6820   -3.6250 C.2   141  GLU141      0.2616
     51  O         -1.8680    3.8600   -2.5370 O.2   141  GLU141     -0.2715
     52  CB        -2.1300    5.0650   -5.7110 C.3   141  GLU141      0.0429
     53  CG        -2.8790    6.0710   -6.5980 C.3   141  GLU141      0.1163
     54  CD        -2.3970    6.1770   -8.0250 C.2   141  GLU141      0.3649
     55  OE1       -2.0640    5.1410   -8.6410 O.co2 141  GLU141     -0.2457
     56  OE2       -2.3900    7.3270   -8.5310 O.co2 141  GLU141     -0.2457
     57  N         -2.6820    2.4890   -4.1720 N.am  142  PHE142     -0.1960
     58  CA        -2.3140    1.2520   -3.5020 C.3   142  PHE142      0.1771
     59  C         -0.9000    1.1920   -2.9310 C.2   142  PHE142      0.2619
     60  O          0.0850    1.4470   -3.6190 O.2   142  PHE142     -0.2715
     61  CB        -2.4470    0.0430   -4.4240 C.3   142  PHE142      0.0574
     62  CG        -3.8340   -0.5500   -4.5100 C.ar  142  PHE142     -0.0200
     63  CD1       -4.6700   -0.6320   -3.3930 C.ar  142  PHE142     -0.0042
     64  CD2       -4.2510   -1.1360   -5.7020 C.ar  142  PHE142     -0.0042
     65  CE1       -5.8990   -1.2950   -3.4590 C.ar  142  PHE142     -0.0003
     66  CE2       -5.4750   -1.8030   -5.7740 C.ar  142  PHE142     -0.0003
     67  CZ        -6.3020   -1.8790   -4.6440 C.ar  142  PHE142     -0.0000
     68  N         -0.8320    0.8550   -1.6590 N.am  143  HIS143     -0.1973
     69  CA         0.4390    0.6350   -1.0030 C.3   143  HIS143      0.1656
     70  C          0.2760   -0.4300    0.0850 C.2   143  HIS143      0.2291
     71  O         -0.7730   -0.5160    0.7610 O.2   143  HIS143     -0.2864
     72  CB         0.9910    1.9280   -0.3650 C.3   143  HIS143      0.0771
     73  CG         0.0840    2.5470    0.6610 C.ar  143  HIS143      0.0820
     74  ND1       -1.0420    3.2570    0.3070 N.ar  143  HIS143     -0.2267
     75  CD2        0.1160    2.5430    2.0140 C.ar  143  HIS143      0.1154
     76  CE1       -1.6650    3.6650    1.4080 C.ar  143  HIS143      0.1986
     77  NE2       -0.9820    3.2460    2.4560 N.ar  143  HIS143     -0.2212
     78  N          1.7770   -1.1620    3.4760 N.3   145  GLU145     -0.1231
     79  CA         2.4370   -0.2210    4.3780 C.3   145  GLU145      0.1699
     80  C          3.8770   -0.5550    4.7300 C.2   145  GLU145      0.2592
     81  O          4.1340   -1.6020    5.2970 O.2   145  GLU145     -0.2718
     82  CB         1.6290   -0.0720    5.6790 C.3   145  GLU145      0.0402
     83  CG         1.8180    1.2950    6.3460 C.3   145  GLU145      0.1161
     84  CD         0.6360    2.2100    6.1480 C.2   145  GLU145      0.3649
     85  OE1       -0.0300    2.1080    5.0800 O.co2 145  GLU145     -0.2457
     86  OE2        0.3520    3.0430    7.0510 O.co2 145  GLU145     -0.2457
     87  N          4.8040    0.3660    4.4220 N.am  146  MET146     -0.1979
     88  CA         6.2300    0.1360    4.7510 C.3   146  MET146      0.1605
     89  C          6.7590   -1.2010    4.2290 C.2   146  MET146      0.2287
     90  O          7.5170   -1.9130    4.8910 O.2   146  MET146     -0.2864
     91  CB         6.4590    0.2640    6.2660 C.3   146  MET146      0.0413
     92  CG         6.2640    1.7150    6.7490 C.3   146  MET146      0.0598
     93  SD         6.5070    1.9650    8.5190 S.3   146  MET146     -0.1393
     94  CE         4.9620    1.3700    9.2170 C.3   146  MET146      0.0692
     95  N          8.7930    5.9890    1.8540 N.3   201  ASP201     -0.1239
     96  CA         7.8790    7.0910    2.1250 C.3   201  ASP201      0.1674
     97  C          8.6700    8.3080    2.5440 C.2   201  ASP201      0.2266
     98  O          9.8110    8.1780    3.0120 O.2   201  ASP201     -0.2867
     99  CB         6.8710    6.7120    3.2090 C.3   201  ASP201      0.1410
    100  CG         5.7410    5.8590    2.6690 C.2   201  ASP201      0.3668
    101  OD1        5.6280    4.6770    3.0710 O.co2 201  ASP201     -0.2456
    102  OD2        4.9810    6.3930    1.8390 O.co2 201  ASP201     -0.2456
    103  N          8.6860   10.1950    5.0680 N.3   203  ALA203     -0.1231
    104  CA         9.2570   10.2000    6.4100 C.3   203  ALA203      0.1694
    105  C         10.6090    9.5310    6.5430 C.2   203  ALA203      0.2592
    106  O         11.3790    9.8960    7.4280 O.2   203  ALA203     -0.2718
    107  CB         8.2910    9.5500    7.4010 C.3   203  ALA203      0.0304
    108  N         10.8960    8.5550    5.6870 N.am  204  PHE204     -0.1976
    109  CA        12.1420    7.8000    5.7770 C.3   204  PHE204      0.1639
    110  C         13.2490    8.2320    4.8320 C.2   204  PHE204      0.2290
    111  O         14.2790    7.5810    4.7490 O.2   204  PHE204     -0.2864
    112  CB        11.8510    6.3010    5.5740 C.3   204  PHE204      0.0560
    113  CG        10.8450    5.7450    6.5470 C.ar  204  PHE204     -0.0200
    114  CD1        9.5250    5.5390    6.1660 C.ar  204  PHE204     -0.0042
    115  CD2       11.2050    5.4660    7.8470 C.ar  204  PHE204     -0.0042
    116  CE1        8.6080    5.0700    7.0620 C.ar  204  PHE204     -0.0003
    117  CE2       10.2940    4.9930    8.7560 C.ar  204  PHE204     -0.0003
    118  CZ         8.9660    4.7900    8.3530 C.ar  204  PHE204     -0.0000
    119  N          3.6320   -1.5430   -4.0310 N.3   224  ASP224     -0.1239
    120  CA         3.3910   -0.1120   -3.8410 C.3   224  ASP224      0.1674
    121  C          3.3370    0.5340   -5.2160 C.2   224  ASP224      0.2266
    122  O          4.3390    0.5770   -5.9280 O.2   224  ASP224     -0.2867
    123  CB         4.4890    0.5100   -2.9680 C.3   224  ASP224      0.1410
    124  CG         4.1680    1.9430   -2.5630 C.2   224  ASP224      0.3668
    125  OD1        4.3340    2.2680   -1.3690 O.co2 224  ASP224     -0.2456
    126  OD2        3.7320    2.7270   -3.4300 O.co2 224  ASP224     -0.2456
    127  N          3.1870    3.5170   -6.1160 N.3   226  GLU226     -0.1231
    128  CA         3.9890    4.7200   -6.3050 C.3   226  GLU226      0.1699
    129  C          5.4760    4.4910   -6.0990 C.2   226  GLU226      0.2592
    130  O          6.3010    5.1210   -6.7920 O.2   226  GLU226     -0.2718
    131  CB         3.5820    5.8080   -5.3060 C.3   226  GLU226      0.0402
    132  CG         2.1320    6.2820   -5.3800 C.3   226  GLU226      0.1161
    133  CD         1.8740    7.2260   -6.5290 C.2   226  GLU226      0.3649
    134  OE1        0.7260    7.7100   -6.6430 O.co2 226  GLU226     -0.2457
    135  OE2        2.8140    7.4780   -7.3170 O.co2 226  GLU226     -0.2457
    136  N          5.8210    3.6140   -5.1640 N.am  227  LEU227     -0.1980
    137  CA         7.2330    3.4250   -4.7850 C.3   227  LEU227      0.1596
    138  C          8.0080    2.2620   -5.3630 C.2   227  LEU227      0.2287
    139  O          9.2310    2.3340   -5.4760 O.2   227  LEU227     -0.2864
    140  CB         7.3730    3.3800   -3.2530 C.3   227  LEU227      0.0297
    141  CG         6.8120    4.5580   -2.4370 C.3   227  LEU227      0.0022
    142  CD1        7.0500    4.2790   -0.9520 C.3   227  LEU227      0.0001
    143  CD2        7.4190    5.9000   -2.8800 C.3   227  LEU227      0.0001
    144  N         -4.8510    5.2900   13.4400 N.3   288  ARG288     -0.1245
    145  CA        -4.0410    4.2210   12.8730 C.3   288  ARG288      0.1563
    146  C         -2.9870    3.7030   13.8370 C.2   288  ARG288      0.2260
    147  O         -2.3440    4.4700   14.5270 O.2   288  ARG288     -0.2867
    148  CB        -3.3260    4.7490   11.6130 C.3   288  ARG288      0.0307
    149  CG        -2.3810    3.7300   10.9200 C.3   288  ARG288      0.0489
    150  CD        -1.7790    4.3410    9.6540 C.3   288  ARG288      0.2205
    151  NE        -0.8210    5.4050    9.9530 N.pl3 288  ARG288     -0.0865
    152  CZ        -0.3000    6.2030    9.0270 C.cat 288  ARG288      0.5346
    153  NH1       -0.6320    6.0680    7.7400 N.pl3 288  ARG288      0.1354
    154  NH2        0.5690    7.1350    9.3870 N.pl3 288  ARG288      0.1354
    155  N          0.0100    0.2520   14.1830 N.3   290  TYR290     -0.1241
    156  CA         0.7130   -0.8450   13.5130 C.3   290  TYR290      0.1605
    157  C          0.9660   -1.9460   14.5140 C.2   290  TYR290      0.2264
    158  O          1.4040   -1.6800   15.6350 O.2   290  TYR290     -0.2867
    159  CB         2.0490   -0.3630   12.9800 C.3   290  TYR290      0.0534
    160  CG         1.9160    0.7560   11.9970 C.ar  290  TYR290     -0.0201
    161  CD1        1.1250    0.6180   10.8750 C.ar  290  TYR290     -0.0009
    162  CD2        2.6230    1.9380   12.1680 C.ar  290  TYR290     -0.0009
    163  CE1        1.0430    1.6360    9.9290 C.ar  290  TYR290      0.0417
    164  CE2        2.5630    2.9580   11.2340 C.ar  290  TYR290      0.0417
    165  CZ         1.7730    2.8050   10.1080 C.ar  290  TYR290      0.1957
    166  OH         1.7430    3.7570    9.1210 O.3   290  TYR290     -0.2866
@<TRIPOS>BOND
     1    55    54   ar
     2    56    54   ar
     3    54    53    1
     4   135   133   ar
     5   130   129    2
     6   134   133   ar
     7    53    52    1
     8   133   132    1
     9   128   127    1
    10   128   129    1
    11   128   131    1
    12   129   136   am
    13   122   121    2
    14    66    64   ar
    15    66    67   ar
    16    52    49    1
    17    64    62   ar
    18   139   138    2
    19   132   131    1
    20   138   137    1
    21   121   120    1
    22   136   137    1
    23   137   140    1
    24    67    65   ar
    25    62    61    1
    26    62    63   ar
    27    61    58    1
    28    49    48    1
    29    49    50    1
    30    57    50   am
    31    57    58    1
    32   119   120    1
    33   120   123    1
    34    48    42   am
    35    50    51    2
    36    60    59    2
    37    58    59    1
    38    65    63   ar
    39   126   124   ar
    40    27    25    1
    41   140   141    1
    42   123   124    1
    43    59    68   am
    44    26    25    1
    45    40    41    1
    46   143   141    1
    47    42    43    2
    48    42    41    1
    49    25    24    1
    50   124   125   ar
    51   141   142    1
    52    41    44    1
    53    68    69    1
    54    20    21    1
    55    24    21    1
    56    69    72    1
    57    69    70    1
    58    21    22    1
    59    44    45    1
    60    72    73    1
    61    46    45    1
    62    45    47    1
    63    70    71    2
    64    74    73   ar
    65    74    76   ar
    66    73    75   ar
    67    22    28   am
    68    22    23    2
    69    28    29    1
    70    76    77   ar
    71   102   100   ar
    72    95    96    1
    73    75    77   ar
    74    96    97    1
    75    96    99    1
    76    31    30    2
    77    97    98    2
    78    29    30    1
    79    29    32    1
    80   100   101   ar
    81   100    99    1
    82    33    32    1
    83    30    34   am
    84    78    79    1
    85    89    88    1
    86    89    90    2
    87    34    35    1
    88    79    80    1
    89    79    82    1
    90    87    80   am
    91    87    88    1
    92    80    81    2
    93   111   110    2
    94    88    91    1
    95   110   109    1
    96    35    36    1
    97    35    38    1
    98    36    37    2
    99   103   104    1
   100    85    84   ar
   101   112   109    1
   102   112   113    1
   103    82    83    1
   104   108   109    1
   105   108   105   am
   106    84    83    1
   107    84    86   ar
   108   114   113   ar
   109   114   116   ar
   110    91    92    1
   111    38    39    1
   112   104   105    1
   113   104   107    1
   114   105   106    2
   115   113   115   ar
   116    92    93    1
   117   116   118   ar
   118   153   152    1
   119   115   117   ar
   120   118   117   ar
   121    93    94    1
   122     7     6    1
   123   152   154    1
   124   152   151    2
   125   166   165    1
   126   150   151    1
   127   150   149    1
   128     8     6    1
   129   163   165   ar
   130   163   161   ar
   131    19    17    1
   132   165   164   ar
   133     6     5    1
   134    16    17    2
   135    16    15    1
   136     5     2    1
   137   161   160   ar
   138    17    18    1
   139   149   148    1
   140     2     1    1
   141     2     3    1
   142   164   162   ar
   143    15    14    1
   144   148   145    1
   145    14    13    1
   146     9     3   am
   147     9    10    1
   148   160   162   ar
   149   160   159    1
   150     3     4    2
   151   145   144    1
   152   145   146    1
   153    10    13    1
   154    10    11    1
   155   159   156    1
   156   156   155    1
   157   156   157    1
   158   146   147    2
   159    11    12    2
   160   157   158    2
