@<TRIPOS>MOLECULE
tmp/1gvhA01.pdb
 241 233 0 0 0
SMALL
GASTEIGER

@<TRIPOS>ATOM
      1  N         50.8900   18.5500  127.3040 N.3    39  LEU39      -0.1245
      2  CA        50.9550   18.4130  125.8590 C.3    39  LEU39       0.1561
      3  C         51.5910   19.6370  125.2110 C.2    39  LEU39       0.2260
      4  O         51.9130   19.6350  124.0260 O.2    39  LEU39      -0.2867
      5  CB        49.5600   18.1440  125.3050 C.3    39  LEU39       0.0270
      6  CG        48.9650   16.7810  125.6420 C.3    39  LEU39       0.0019
      7  CD1       47.5190   16.6990  125.1880 C.3    39  LEU39       0.0001
      8  CD2       49.7860   15.6730  125.0030 C.3    39  LEU39       0.0001
      9  N         54.8000   18.9810  123.5230 N.3    42  ILE42      -0.1231
     10  CA        54.8050   18.2340  122.2780 C.3    42  ILE42       0.1692
     11  C         54.2820   19.0720  121.1180 C.2    42  ILE42       0.2592
     12  O         54.9020   19.1490  120.0690 O.2    42  ILE42      -0.2718
     13  CB        53.9730   16.9700  122.4770 C.3    42  ILE42       0.0266
     14  CG1       54.6220   16.0970  123.5400 C.3    42  ILE42       0.0019
     15  CG2       53.8210   16.2270  121.1610 C.3    42  ILE42       0.0020
     16  CD1       53.6150   15.1850  124.2540 C.3    42  ILE42       0.0001
     17  N         53.2360   19.8660  121.3360 N.am   43  PHE43      -0.1962
     18  CA        52.7330   20.7240  120.2790 C.3    43  PHE43       0.1771
     19  C         53.6180   21.9500  120.1770 C.2    43  PHE43       0.2619
     20  O         54.2230   22.3610  121.1590 O.2    43  PHE43      -0.2715
     21  CB        51.3180   21.1960  120.5870 C.3    43  PHE43       0.0574
     22  CG        50.2650   20.1610  120.2340 C.ar   43  PHE43      -0.0200
     23  CD1       49.8280   19.2580  121.1970 C.ar   43  PHE43      -0.0042
     24  CD2       49.7610   20.1060  118.9430 C.ar   43  PHE43      -0.0042
     25  CE1       48.8890   18.2940  120.8590 C.ar   43  PHE43      -0.0003
     26  CE2       48.8230   19.1400  118.6150 C.ar   43  PHE43      -0.0003
     27  CZ        48.3900   18.2370  119.5690 C.ar   43  PHE43      -0.0000
     28  N         53.5820   22.6560  119.0530 N.am   44  ASN44      -0.1972
     29  CA        54.3920   23.8520  118.9010 C.3    44  ASN44       0.1688
     30  C         53.7500   25.0090  119.6560 C.2    44  ASN44       0.2292
     31  O         52.5680   25.2930  119.4840 O.2    44  ASN44      -0.2864
     32  CB        54.4890   24.1890  117.4170 C.3    44  ASN44       0.1181
     33  CG        55.4630   25.3040  117.0700 C.2    44  ASN44       0.2629
     34  OD1       55.7420   25.5800  115.9100 O.2    44  ASN44      -0.2716
     35  ND2       56.0100   25.9940  118.0490 N.am   44  ASN44      -0.0877
     36  N         48.8420   23.4290  111.9070 N.3    53  GLN53      -0.1231
     37  CA        48.9650   22.0620  112.3730 C.3    53  GLN53       0.1698
     38  C         47.8160   21.6650  113.2990 C.2    53  GLN53       0.2592
     39  O         47.1830   20.6250  113.1150 O.2    53  GLN53      -0.2718
     40  CB        50.2970   21.8970  113.0820 C.3    53  GLN53       0.0381
     41  CG        51.4720   21.9610  112.1200 C.3    53  GLN53       0.0905
     42  CD        51.6060   20.7020  111.2810 C.2    53  GLN53       0.2608
     43  OE1       52.3480   20.6530  110.3030 O.2    53  GLN53      -0.2717
     44  NE2       50.8930   19.6450  111.6480 N.am   53  GLN53      -0.0878
     45  N         47.3590   22.5840  114.1520 N.am   54  ARG54      -0.1980
     46  CA        46.2630   22.2630  115.0480 C.3    54  ARG54       0.1597
     47  C         44.9930   22.0310  114.2540 C.2    54  ARG54       0.2287
     48  O         44.1780   21.1540  114.5450 O.2    54  ARG54      -0.2864
     49  CB        46.0370   23.4200  116.0150 C.3    54  ARG54       0.0334
     50  CG        46.9410   23.3140  117.2280 C.3    54  ARG54       0.0492
     51  CD        46.9720   24.5950  118.0460 C.3    54  ARG54       0.2205
     52  NE        48.1720   24.5650  118.8620 N.pl3  54  ARG54      -0.0865
     53  CZ        48.3620   25.4350  119.8530 C.cat  54  ARG54       0.5346
     54  NH1       49.5050   25.3420  120.5320 N.pl3  54  ARG54       0.1354
     55  NH2       47.3020   25.9670  120.4710 N.pl3  54  ARG54       0.1354
     56  N         44.5730   21.1890  111.1680 N.3    56  ALA56      -0.1231
     57  CA        44.5910   19.9930  110.3490 C.3    56  ALA56       0.1694
     58  C         44.3730   18.7350  111.1640 C.2    56  ALA56       0.2591
     59  O         43.5800   17.8680  110.8020 O.2    56  ALA56      -0.2718
     60  CB        45.9470   19.8760  109.6810 C.3    56  ALA56       0.0304
     61  N         44.9690   18.6860  112.3490 N.am   57  LEU57      -0.1980
     62  CA        44.8160   17.5290  113.2090 C.3    57  LEU57       0.1596
     63  C         43.3520   17.3120  113.5620 C.2    57  LEU57       0.2287
     64  O         42.8100   16.2160  113.4430 O.2    57  LEU57      -0.2864
     65  CB        45.6210   17.7620  114.4810 C.3    57  LEU57       0.0297
     66  CG        45.6520   16.6800  115.5570 C.3    57  LEU57       0.0022
     67  CD1       46.7460   17.0070  116.5600 C.3    57  LEU57       0.0001
     68  CD2       44.3140   16.5680  116.2730 C.3    57  LEU57       0.0001
     69  N         41.2100   16.3790  110.5790 N.3    60  ALA60      -0.1231
     70  CA        41.3930   15.0070  110.1520 C.3    60  ALA60       0.1694
     71  C         40.6480   14.0450  111.0610 C.2    60  ALA60       0.2591
     72  O         40.1800   13.0020  110.6310 O.2    60  ALA60      -0.2718
     73  CB        42.8610   14.6340  110.2160 C.3    60  ALA60       0.0304
     74  N         40.6420   14.2860  112.3690 N.am   61  ILE61      -0.1980
     75  CA        39.9280   13.3710  113.2450 C.3    61  ILE61       0.1595
     76  C         38.4400   13.3690  112.9420 C.2    61  ILE61       0.2287
     77  O         37.8210   12.3230  112.7750 O.2    61  ILE61      -0.2864
     78  CB        40.1500   13.7550  114.7150 C.3    61  ILE61       0.0276
     79  CG1       41.5550   13.4020  115.1700 C.3    61  ILE61       0.0022
     80  CG2       39.1190   13.0540  115.5870 C.3    61  ILE61       0.0022
     81  CD1       41.8860   13.9250  116.5800 C.3    61  ILE61       0.0001
     82  N         38.1010   11.7060  109.3060 N.3    64  TYR64      -0.1241
     83  CA        38.4790   10.3030  109.2520 C.3    64  TYR64       0.1605
     84  C         37.5370    9.4560  110.1000 C.2    64  TYR64       0.2264
     85  O         37.1930    8.3250  109.7560 O.2    64  TYR64      -0.2867
     86  CB        39.9110   10.1260  109.7550 C.3    64  TYR64       0.0534
     87  CG        40.9940   10.6780  108.8190 C.ar   64  TYR64      -0.0201
     88  CD1       42.3330   10.4410  109.1080 C.ar   64  TYR64      -0.0009
     89  CD2       40.6510   11.4810  107.7400 C.ar   64  TYR64      -0.0009
     90  CE1       43.3280   11.0170  108.3380 C.ar   64  TYR64       0.0417
     91  CE2       41.6440   12.0600  106.9660 C.ar   64  TYR64       0.0417
     92  CZ        42.9740   11.8300  107.2750 C.ar   64  TYR64       0.1957
     93  OH        43.9590   12.4570  106.5340 O.3    64  TYR64      -0.2866
     94  N         51.3010    8.9150  106.0990 N.3    80  LYS80      -0.1231
     95  CA        52.0310   10.1610  106.1900 C.3    80  LYS80       0.1693
     96  C         51.9340   10.7610  107.5850 C.2    80  LYS80       0.2591
     97  O         52.9490   11.1190  108.1860 O.2    80  LYS80      -0.2718
     98  CB        51.5120   11.1670  105.1760 C.3    80  LYS80       0.0285
     99  CG        52.2690   12.4810  105.2710 C.3    80  LYS80       0.0035
    100  CD        51.9630   13.3720  104.0800 C.3    80  LYS80       0.0206
    101  CE        53.1300   13.3220  103.1080 C.3    80  LYS80       0.1093
    102  NZ        52.8250   12.4110  102.0250 N.3    80  LYS80      -0.1314
    103  N         50.7580   10.6790  108.2100 N.am   81  ILE81      -0.1980
    104  CA        50.6180   11.2310  109.5490 C.3    81  ILE81       0.1595
    105  C         51.2770   10.3340  110.5750 C.2    81  ILE81       0.2287
    106  O         52.0060   10.7940  111.4460 O.2    81  ILE81      -0.2864
    107  CB        49.1400   11.3990  109.9160 C.3    81  ILE81       0.0276
    108  CG1       48.4210   12.2910  108.9240 C.3    81  ILE81       0.0022
    109  CG2       49.0280   11.9680  111.3180 C.3    81  ILE81       0.0022
    110  CD1       46.9170   11.9700  108.8390 C.3    81  ILE81       0.0001
    111  N         54.9630   11.0580  110.8010 N.3    84  LYS84      -0.1231
    112  CA        55.2280   12.3090  111.4920 C.3    84  LYS84       0.1693
    113  C         55.0300   12.1860  113.0030 C.2    84  LYS84       0.2592
    114  O         55.8220   12.6810  113.8040 O.2    84  LYS84      -0.2718
    115  CB        54.2800   13.3500  110.9260 C.3    84  LYS84       0.0285
    116  CG        54.3950   14.7140  111.5820 C.3    84  LYS84       0.0035
    117  CD        53.2040   15.5550  111.1500 C.3    84  LYS84       0.0206
    118  CE        53.3130   16.9640  111.7120 C.3    84  LYS84       0.1093
    119  NZ        54.4310   17.6670  111.1190 N.3    84  LYS84      -0.1314
    120  N         53.9970   11.4560  113.4220 N.am   85  HIS85      -0.1976
    121  CA        53.7320   11.2790  114.8410 C.3    85  HIS85       0.1656
    122  C         54.8990   10.5970  115.5330 C.2    85  HIS85       0.2291
    123  O         55.1580   10.7800  116.7170 O.2    85  HIS85      -0.2864
    124  CB        52.4940   10.4150  115.0030 C.3    85  HIS85       0.0771
    125  CG        51.1250   11.0930  114.8780 C.ar   85  HIS85       0.0820
    126  ND1       49.8840   10.4220  114.7610 N.ar   85  HIS85      -0.2267
    127  CD2       50.9280   12.4770  114.8800 C.ar   85  HIS85       0.1154
    128  CE1       48.9750   11.3730  114.6910 C.ar   85  HIS85       0.1986
    129  NE2       49.5090   12.5420  114.7590 N.ar   85  HIS85      -0.2212
    130  N         57.3160   12.8940  116.8550 N.3    88  PHE88      -0.1241
    131  CA        56.8130   13.5510  118.0450 C.3    88  PHE88       0.1605
    132  C         56.5650   12.5300  119.1540 C.2    88  PHE88       0.2264
    133  O         56.0080   12.8460  120.2050 O.2    88  PHE88      -0.2867
    134  CB        55.5160   14.2890  117.7180 C.3    88  PHE88       0.0534
    135  CG        55.7390   15.5480  116.8870 C.ar   88  PHE88      -0.0203
    136  CD1       55.9320   15.4490  115.5170 C.ar   88  PHE88      -0.0042
    137  CD2       55.7450   16.7930  117.5010 C.ar   88  PHE88      -0.0042
    138  CE1       56.1310   16.5970  114.7660 C.ar   88  PHE88      -0.0003
    139  CE2       55.9420   17.9350  116.7400 C.ar   88  PHE88      -0.0003
    140  CZ        56.1360   17.8380  115.3760 C.ar   88  PHE88      -0.0000
    141  N         54.3170   10.1660  119.5710 N.3    90  ILE90      -0.1245
    142  CA        52.9490   10.0970  120.0420 C.3    90  ILE90       0.1561
    143  C         52.7000    8.7180  120.6390 C.2    90  ILE90       0.2260
    144  O         53.1400    7.7050  120.0910 O.2    90  ILE90      -0.2867
    145  CB        52.0050   10.3840  118.8670 C.3    90  ILE90       0.0252
    146  CG1       52.3090   11.7380  118.2420 C.3    90  ILE90       0.0019
    147  CG2       50.5630   10.3270  119.3290 C.3    90  ILE90       0.0019
    148  CD1       52.2490   12.9050  119.2480 C.3    90  ILE90       0.0001
    149  N         48.1450    9.1460  124.8690 N.3    94  GLN94      -0.1231
    150  CA        47.7430   10.4450  124.3610 C.3    94  GLN94       0.1698
    151  C         46.5140   10.3390  123.4800 C.2    94  GLN94       0.2592
    152  O         45.7440   11.2860  123.3590 O.2    94  GLN94      -0.2718
    153  CB        48.8890   11.0870  123.6040 C.3    94  GLN94       0.0381
    154  CG        50.1020   11.2850  124.5000 C.3    94  GLN94       0.0905
    155  CD        51.3430   11.6390  123.7090 C.2    94  GLN94       0.2608
    156  OE1       51.6350   11.0320  122.6900 O.2    94  GLN94      -0.2717
    157  NE2       52.0840   12.6600  124.1220 N.am   94  GLN94      -0.0878
    158  N         46.2960    9.1900  122.8410 N.am   95  TYR95      -0.1976
    159  CA        45.0960    9.0610  122.0390 C.3    95  TYR95       0.1639
    160  C         43.8970    9.0380  122.9760 C.2    95  TYR95       0.2290
    161  O         42.7970    9.4690  122.6320 O.2    95  TYR95      -0.2864
    162  CB        45.1230    7.7730  121.2270 C.3    95  TYR95       0.0560
    163  CG        45.9830    7.8760  119.9740 C.ar   95  TYR95      -0.0198
    164  CD1       45.4610    8.4340  118.8150 C.ar   95  TYR95      -0.0009
    165  CD2       47.3050    7.4620  120.0180 C.ar   95  TYR95      -0.0009
    166  CE1       46.2710    8.5990  117.7050 C.ar   95  TYR95       0.0417
    167  CE2       48.1200    7.6230  118.9120 C.ar   95  TYR95       0.0417
    168  CZ        47.5950    8.2000  117.7710 C.ar   95  TYR95       0.1957
    169  OH        48.4230    8.4320  116.6960 O.3    95  TYR95      -0.2866
    170  N         43.1680   12.6980  123.8200 N.3    98  VAL98      -0.1245
    171  CA        42.5030   13.4060  122.7460 C.3    98  VAL98       0.1561
    172  C         41.0640   12.9320  122.5890 C.2    98  VAL98       0.2260
    173  O         40.1430   13.7420  122.4900 O.2    98  VAL98      -0.2867
    174  CB        43.2910   13.1960  121.4500 C.3    98  VAL98       0.0252
    175  CG1       42.3930   13.3950  120.2430 C.3    98  VAL98       0.0019
    176  CG2       44.4710   14.1540  121.4040 C.3    98  VAL98       0.0019
    177  N         35.9280    7.0150  116.8940 N.3   124  TYR124     -0.1241
    178  CA        37.2410    7.5760  117.1770 C.3   124  TYR124      0.1605
    179  C         38.1770    6.4700  117.6140 C.2   124  TYR124      0.2264
    180  O         39.3800    6.5140  117.3600 O.2   124  TYR124     -0.2867
    181  CB        37.1660    8.5890  118.3130 C.3   124  TYR124      0.0534
    182  CG        38.5450    9.0200  118.7960 C.ar  124  TYR124     -0.0201
    183  CD1       39.0680    8.5250  119.9820 C.ar  124  TYR124     -0.0009
    184  CD2       39.2870    9.8910  118.0250 C.ar  124  TYR124     -0.0009
    185  CE1       40.3370    8.9040  120.3930 C.ar  124  TYR124      0.0417
    186  CE2       40.5510   10.2720  118.4270 C.ar  124  TYR124      0.0417
    187  CZ        41.0670    9.7780  119.6080 C.ar  124  TYR124      0.1957
    188  OH        42.3250   10.1840  120.0160 O.3   124  TYR124     -0.2866
    189  N         39.5510    4.5540  114.8590 N.3   127  LEU127     -0.1231
    190  CA        40.5310    5.3550  114.1590 C.3   127  LEU127      0.1693
    191  C         41.8140    5.4690  114.9550 C.2   127  LEU127      0.2591
    192  O         42.9000    5.2310  114.4290 O.2   127  LEU127     -0.2718
    193  CB        39.9800    6.7490  113.9280 C.3   127  LEU127      0.0284
    194  CG        40.9120    7.7540  113.2730 C.3   127  LEU127      0.0019
    195  CD1       41.2130    7.3260  111.8450 C.3   127  LEU127      0.0001
    196  CD2       40.2920    9.1440  113.3010 C.3   127  LEU127      0.0001
    197  N         41.7020    5.6270  116.2760 N.am  128  ALA128     -0.1980
    198  CA        42.9070    5.7490  117.0720 C.3   128  ALA128      0.1597
    199  C         43.6880    4.4470  117.0770 C.2   128  ALA128      0.2287
    200  O         44.9140    4.4300  116.9990 O.2   128  ALA128     -0.2864
    201  CB        42.5470    6.0780  118.5120 C.3   128  ALA128      0.0319
    202  N         46.0140    4.1850  113.9500 N.3   131  PHE131     -0.1241
    203  CA        47.2560    4.9250  114.0770 C.3   131  PHE131      0.1605
    204  C         48.1840    4.2860  115.1010 C.2   131  PHE131      0.2264
    205  O         49.3930    4.1750  114.9130 O.2   131  PHE131     -0.2867
    206  CB        46.9420    6.3350  114.5370 C.3   131  PHE131      0.0534
    207  CG        46.5120    7.2460  113.4050 C.ar  131  PHE131     -0.0203
    208  CD1       47.4700    7.9330  112.6790 C.ar  131  PHE131     -0.0042
    209  CD2       45.1700    7.3730  113.0920 C.ar  131  PHE131     -0.0042
    210  CE1       47.0740    8.7460  111.6300 C.ar  131  PHE131     -0.0003
    211  CE2       44.7850    8.1880  112.0460 C.ar  131  PHE131     -0.0003
    212  CZ        45.7360    8.8740  111.3160 C.ar  131  PHE131     -0.0000
    213  N         59.6600   20.5640  119.3580 N.3   203  ILE203     -0.1245
    214  CA        60.0830   19.4870  118.4790 C.3   203  ILE203      0.1561
    215  C         59.9520   19.9180  117.0160 C.2   203  ILE203      0.2260
    216  O         58.9890   20.5940  116.6540 O.2   203  ILE203     -0.2867
    217  CB        59.2050   18.2560  118.7410 C.3   203  ILE203      0.0252
    218  CG1       59.3480   17.7580  120.1800 C.3   203  ILE203      0.0019
    219  CG2       59.5310   17.1700  117.7280 C.3   203  ILE203      0.0019
    220  CD1       58.1500   16.9110  120.6690 C.3   203  ILE203      0.0001
    221  N         55.3750   21.9990  105.9280 N.3   391  GLY391     -0.1210
    222  CA        54.2880   22.4610  106.7810 C.3   391  GLY391      0.1940
    223  C         53.1940   21.4100  106.6640 C.2   391  GLY391      0.2454
    224  O         53.4820   20.2940  106.2440 O.2   391  GLY391     -0.2732
    225  N         51.9510   21.6490  107.0810 N.am  392  PRO392     -0.2717
    226  CA        50.9060   20.6460  106.8990 C.3   392  PRO392      0.1535
    227  C         50.8120   20.1690  105.4500 C.2   392  PRO392      0.2598
    228  O         50.9540   20.9580  104.5210 O.2   392  PRO392     -0.2715
    229  CB        49.6460   21.3300  107.3740 C.3   392  PRO392      0.0310
    230  CG        50.0100   22.7100  107.8770 C.3   392  PRO392      0.0237
    231  CD        51.4360   22.9710  107.4140 C.3   392  PRO392      0.0939
    232  N         50.2940   18.9580  105.2380 N.am  393  HIS393     -0.1974
    233  CA        50.2260   18.4290  103.9050 C.3   393  HIS393      0.1656
    234  C         49.1260   19.0220  103.0440 C.2   393  HIS393      0.2291
    235  O         47.9300   19.0080  103.3750 O.2   393  HIS393     -0.2864
    236  CB        50.0900   16.9170  103.9880 C.3   393  HIS393      0.0771
    237  CG        50.2470   16.3850  102.5290 C.ar  393  HIS393      0.0820
    238  ND1       51.4620   16.3250  101.7900 N.ar  393  HIS393     -0.2267
    239  CD2       49.1240   15.8760  101.7030 C.ar  393  HIS393      0.1154
    240  CE1       51.1160   15.6750  100.6660 C.ar  393  HIS393      0.1986
    241  NE2       49.8150   15.4450  100.5700 N.ar  393  HIS393     -0.2212
@<TRIPOS>BOND
     1   241   240   ar
     2   241   239   ar
     3   240   238   ar
     4   239   237   ar
     5   238   237   ar
     6   102   101    1
     7   237   236    1
     8   234   235    2
     9   234   233    1
    10   101   100    1
    11   233   236    1
    12   233   232    1
    13   100    99    1
    14   228   227    2
    15    98    99    1
    16    98    95    1
    17   232   227   am
    18   227   226    1
    19   221   222    1
    20    94    95    1
    21    95    96    1
    22   224   223    2
    23    93    92    1
    24   223   222    1
    25   223   225   am
    26   226   225    1
    27   226   229    1
    28    91    92   ar
    29    91    89   ar
    30   225   231    1
    31    92    90   ar
    32   229   230    1
    33   231   230    1
    34    96    97    2
    35    96   103   am
    36    89    87   ar
    37   103   104    1
    38    90    88   ar
    39    87    88   ar
    40    87    86    1
    41   110   108    1
    42   108   107    1
    43    83    82    1
    44    83    86    1
    45    83    84    1
    46   104   107    1
    47   104   105    1
    48    60    57    1
    49    85    84    2
    50   107   109    1
    51    70    73    1
    52    70    69    1
    53    70    71    1
    54    43    42    2
    55    57    58    1
    56    57    56    1
    57   105   106    2
    58    72    71    2
    59   111   112    1
    60    59    58    2
    61   115   112    1
    62   115   116    1
    63    71    74   am
    64   119   118    1
    65   117   116    1
    66   117   118    1
    67    58    61   am
    68    42    44   am
    69    42    41    1
    70   212   210   ar
    71   212   211   ar
    72   112   113    1
    73   210   208   ar
    74   195   194    1
    75    36    37    1
    76   211   209   ar
    77    41    40    1
    78    61    62    1
    79    74    75    1
    80    37    40    1
    81    37    38    1
    82   208   207   ar
    83    77    76    2
    84    76    75    1
    85   113   120   am
    86   113   114    2
    87   209   207   ar
    88    39    38    2
    89    62    63    1
    90    62    65    1
    91    75    78    1
    92   194   196    1
    93   194   193    1
    94    38    45   am
    95   207   206    1
    96   120   121    1
    97    64    63    2
    98   193   190    1
    99   202   203    1
   100   203   206    1
   101   203   204    1
   102    45    46    1
   103   190   189    1
   104   190   191    1
   105    47    48    2
   106    47    46    1
   107   192   191    2
   108    65    66    1
   109   128   129   ar
   110   128   126   ar
   111    78    79    1
   112    78    80    1
   113   129   127   ar
   114   126   125   ar
   115   138   140   ar
   116   138   136   ar
   117   121   124    1
   118   121   122    1
   119   125   127   ar
   120   125   124    1
   121   205   204    2
   122   191   197   am
   123    46    49    1
   124    79    81    1
   125   140   139   ar
   126   136   135   ar
   127   122   123    2
   128    66    68    1
   129    66    67    1
   130    34    33    2
   131    49    50    1
   132   197   198    1
   133   216   215    2
   134   169   168    1
   135   139   137   ar
   136   130   131    1
   137   135   137   ar
   138   135   134    1
   139   177   178    1
   140   200   199    2
   141   215   214    1
   142    33    32    1
   143    33    35   am
   144   198   199    1
   145   198   201    1
   146   178   179    1
   147   178   181    1
   148    50    51    1
   149   180   179    2
   150    32    29    1
   151   166   168   ar
   152   166   164   ar
   153   134   131    1
   154   219   217    1
   155   168   167   ar
   156   184   186   ar
   157   184   182   ar
   158   131   132    1
   159    51    52    1
   160   146   145    1
   161   146   148    1
   162   181   182    1
   163   186   187   ar
   164   214   217    1
   165   214   213    1
   166    26    24   ar
   167    26    27   ar
   168   217   218    1
   169   182   183   ar
   170   164   163   ar
   171    52    53    2
   172   145   147    1
   173   145   142    1
   174    29    28    1
   175    29    30    1
   176   167   165   ar
   177    24    22   ar
   178    28    19   am
   179   132   133    2
   180    31    30    2
   181    27    25   ar
   182   141   142    1
   183   187   188    1
   184   187   185   ar
   185    53    55    1
   186    53    54    1
   187   163   165   ar
   188   163   162    1
   189   183   185   ar
   190   142   143    1
   191    12    11    2
   192   144   143    2
   193    19    18    1
   194    19    20    2
   195   218   220    1
   196    22    21    1
   197    22    23   ar
   198   175   174    1
   199    18    21    1
   200    18    17    1
   201    25    23   ar
   202    11    17   am
   203    11    10    1
   204    15    13    1
   205   162   159    1
   206   176   174    1
   207   174   171    1
   208   159   158    1
   209   159   160    1
   210    10    13    1
   211    10     9    1
   212    13    14    1
   213   173   172    2
   214   172   171    1
   215   161   160    2
   216   156   155    2
   217   171   170    1
   218   158   151   am
   219   152   151    2
   220   151   150    1
   221    14    16    1
   222   153   150    1
   223   153   154    1
   224   155   157   am
   225   155   154    1
   226     4     3    2
   227   150   149    1
   228     8     6    1
   229     7     6    1
   230     3     2    1
   231     5     6    1
   232     5     2    1
   233     2     1    1
