@<TRIPOS>MOLECULE
tmp/1gvhA00.pdb
 226 216 0 0 0
SMALL
GASTEIGER

@<TRIPOS>ATOM
      1  N         53.5820   22.6560  119.0530 N.3    44  ASN44      -0.1240
      2  CA        54.3920   23.8520  118.9010 C.3    44  ASN44       0.1653
      3  C         53.7500   25.0090  119.6560 C.2    44  ASN44       0.2266
      4  O         52.5680   25.2930  119.4840 O.2    44  ASN44      -0.2867
      5  CB        54.4890   24.1890  117.4170 C.3    44  ASN44       0.1155
      6  CG        55.4630   25.3040  117.0700 C.2    44  ASN44       0.2627
      7  OD1       55.7420   25.5800  115.9100 O.2    44  ASN44      -0.2716
      8  ND2       56.0100   25.9940  118.0490 N.am   44  ASN44      -0.0877
      9  N         55.3450   28.0430  119.9090 N.3    46  SER46      -0.1217
     10  CA        55.9530   29.2880  119.4960 C.3    46  SER46       0.1889
     11  C         54.9400   30.3740  119.1510 C.2    46  SER46       0.2288
     12  O         53.8310   30.1150  118.6720 O.2    46  SER46      -0.2866
     13  CB        56.8600   29.0380  118.3090 C.3    46  SER46       0.2089
     14  OG        57.1180   30.2440  117.6130 O.3    46  SER46      -0.2183
     15  N         55.2510   32.4090  117.0400 N.3    48  GLN48      -0.1231
     16  CA        55.3860   32.6520  115.6200 C.3    48  GLN48       0.1698
     17  C         54.5440   31.6870  114.7940 C.2    48  GLN48       0.2592
     18  O         54.1720   32.0210  113.6780 O.2    48  GLN48      -0.2718
     19  CB        56.8600   32.4860  115.2850 C.3    48  GLN48       0.0381
     20  CG        57.3410   33.2200  114.0490 C.3    48  GLN48       0.0905
     21  CD        57.0020   34.6940  113.9930 C.2    48  GLN48       0.2608
     22  OE1       56.5300   35.1920  112.9730 O.2    48  GLN48      -0.2717
     23  NE2       57.2620   35.4410  115.0630 N.am   48  GLN48      -0.0878
     24  N         53.9150   30.6850  115.4210 N.am   49  ARG49      -0.1966
     25  CA        53.1200   29.7240  114.6620 C.3    49  ARG49       0.1729
     26  C         51.8260   30.2950  114.0750 C.2    49  ARG49       0.2616
     27  O         51.2800   31.2810  114.5610 O.2    49  ARG49      -0.2715
     28  CB        52.8140   28.5210  115.5370 C.3    49  ARG49       0.0348
     29  CG        51.6860   28.7760  116.5190 C.3    49  ARG49       0.0492
     30  CD        51.8490   27.8620  117.7190 C.3    49  ARG49       0.2205
     31  NE        51.0810   28.3690  118.8350 N.pl3  49  ARG49      -0.0865
     32  CZ        49.7630   28.4190  118.7440 C.cat  49  ARG49       0.5346
     33  NH1       49.0660   28.8910  119.7720 N.pl3  49  ARG49       0.1354
     34  NH2       49.1490   27.7340  117.7780 N.pl3  49  ARG49       0.1354
     35  N         51.2440   29.6460  113.0630 N.am   50  ASN50      -0.1972
     36  CA        50.0390   30.1880  112.4670 C.3    50  ASN50       0.1688
     37  C         48.7870   29.3830  112.7800 C.2    50  ASN50       0.2292
     38  O         47.6770   29.7380  112.3730 O.2    50  ASN50      -0.2864
     39  CB        50.2260   30.3220  110.9630 C.3    50  ASN50       0.1181
     40  CG        50.6310   29.0250  110.2760 C.2    50  ASN50       0.2629
     41  OD1       50.4440   27.9210  110.7930 O.2    50  ASN50      -0.2716
     42  ND2       51.1780   29.1230  109.0640 N.am   50  ASN50      -0.0877
     43  N         48.8420   23.4290  111.9070 N.3    53  GLN53      -0.1245
     44  CA        48.9650   22.0620  112.3730 C.3    53  GLN53       0.1566
     45  C         47.8160   21.6650  113.2990 C.2    53  GLN53       0.2260
     46  O         47.1830   20.6250  113.1150 O.2    53  GLN53      -0.2867
     47  CB        50.2970   21.8970  113.0820 C.3    53  GLN53       0.0367
     48  CG        51.4720   21.9610  112.1200 C.3    53  GLN53       0.0905
     49  CD        51.6060   20.7020  111.2810 C.2    53  GLN53       0.2608
     50  OE1       52.3480   20.6530  110.3030 O.2    53  GLN53      -0.2717
     51  NE2       50.8930   19.6450  111.6480 N.am   53  GLN53      -0.0878
     52  N         54.9630   11.0580  110.8010 N.3    84  LYS84      -0.1245
     53  CA        55.2280   12.3090  111.4920 C.3    84  LYS84       0.1561
     54  C         55.0300   12.1860  113.0030 C.2    84  LYS84       0.2260
     55  O         55.8220   12.6810  113.8040 O.2    84  LYS84      -0.2867
     56  CB        54.2800   13.3500  110.9260 C.3    84  LYS84       0.0271
     57  CG        54.3950   14.7140  111.5820 C.3    84  LYS84       0.0035
     58  CD        53.2040   15.5550  111.1500 C.3    84  LYS84       0.0206
     59  CE        53.3130   16.9640  111.7120 C.3    84  LYS84       0.1093
     60  NZ        54.4310   17.6670  111.1190 N.3    84  LYS84      -0.1314
     61  N         63.2820   12.4550  107.3520 N.3   188  TYR188     -0.1241
     62  CA        63.6870   13.5070  108.2790 C.3   188  TYR188      0.1605
     63  C         63.9570   13.0350  109.7090 C.2   188  TYR188      0.2264
     64  O         63.4520   12.0110  110.1690 O.2   188  TYR188     -0.2867
     65  CB        62.6090   14.5870  108.3070 C.3   188  TYR188      0.0534
     66  CG        61.2110   14.0170  108.5090 C.ar  188  TYR188     -0.0201
     67  CD1       60.8090   13.6090  109.7700 C.ar  188  TYR188     -0.0009
     68  CD2       60.3680   13.8380  107.4220 C.ar  188  TYR188     -0.0009
     69  CE1       59.5730   13.0090  109.9420 C.ar  188  TYR188      0.0417
     70  CE2       59.1280   13.2430  107.5870 C.ar  188  TYR188      0.0417
     71  CZ        58.7460   12.8290  108.8520 C.ar  188  TYR188      0.1957
     72  OH        57.5260   12.2070  109.0310 O.3   188  TYR188     -0.2866
     73  N         61.0310   19.8140  116.2290 N.3   204  ARG204     -0.1231
     74  CA        60.9710   20.2050  114.8280 C.3   204  ARG204      0.1694
     75  C         61.4890   19.0890  113.9320 C.2   204  ARG204      0.2592
     76  O         62.3340   18.2990  114.3420 O.2   204  ARG204     -0.2718
     77  CB        61.8160   21.4490  114.5800 C.3   204  ARG204      0.0321
     78  CG        61.4260   22.6480  115.4420 C.3   204  ARG204      0.0489
     79  CD        60.1050   23.2480  114.9800 C.3   204  ARG204      0.2205
     80  NE        59.8200   24.4990  115.6610 N.pl3 204  ARG204     -0.0865
     81  CZ        59.0260   24.5260  116.7260 C.cat 204  ARG204      0.5346
     82  NH1       58.7830   25.6850  117.3190 N.pl3 204  ARG204      0.1354
     83  NH2       58.4510   23.4130  117.1810 N.pl3 204  ARG204      0.1354
     84  N         61.0640   19.0510  112.6650 N.am  205  GLN205     -0.1966
     85  CA        61.5180   18.0150  111.7480 C.3   205  GLN205      0.1733
     86  C         62.5360   18.5690  110.7620 C.2   205  GLN205      0.2616
     87  O         62.3810   19.6930  110.2810 O.2   205  GLN205     -0.2715
     88  CB        60.3420   17.4750  110.9420 C.3   205  GLN205      0.0408
     89  CG        59.4050   16.5710  111.7290 C.3   205  GLN205      0.0908
     90  CD        58.0160   16.4880  111.1110 C.2   205  GLN205      0.2608
     91  OE1       57.1570   17.3230  111.3670 O.2   205  GLN205     -0.2717
     92  NE2       57.7570   15.4950  110.2630 N.am  205  GLN205     -0.0878
     93  N         63.7330   17.9880  110.7280 N.am  206  TYR206     -0.1960
     94  CA        64.7310   18.4600  109.7880 C.3   206  TYR206      0.1771
     95  C         65.1780   17.3220  108.8830 C.2   206  TYR206      0.2620
     96  O         65.5170   16.2280  109.3330 O.2   206  TYR206     -0.2715
     97  CB        65.9260   19.0410  110.5230 C.3   206  TYR206      0.0574
     98  CG        65.5810   20.3660  111.1770 C.ar  206  TYR206     -0.0198
     99  CD1       65.2640   21.4530  110.3890 C.ar  206  TYR206     -0.0009
    100  CD2       65.4900   20.4460  112.5570 C.ar  206  TYR206     -0.0009
    101  CE1       64.8380   22.6290  110.9730 C.ar  206  TYR206      0.0417
    102  CE2       65.0620   21.6140  113.1490 C.ar  206  TYR206      0.0417
    103  CZ        64.7400   22.6910  112.3460 C.ar  206  TYR206      0.1957
    104  OH        64.3150   23.8560  112.9280 O.3   206  TYR206     -0.2866
    105  N         65.1750   17.5560  107.5790 N.am  207  SER207     -0.1950
    106  CA        65.5490   16.5140  106.6460 C.3   207  SER207      0.1924
    107  C         67.0070   16.0990  106.7070 C.2   207  SER207      0.2314
    108  O         67.9030   16.9070  106.9260 O.2   207  SER207     -0.2863
    109  CB        65.2570   16.9870  105.2320 C.3   207  SER207      0.2116
    110  OG        63.9320   17.4740  105.1110 O.3   207  SER207     -0.2180
    111  N         70.4580   20.8020  107.6870 N.3   220  ALA220     -0.1231
    112  CA        70.6950   22.1750  107.2940 C.3   220  ALA220      0.1694
    113  C         69.4610   23.0140  107.5970 C.2   220  ALA220      0.2592
    114  O         68.3600   22.7490  107.1090 O.2   220  ALA220     -0.2718
    115  CB        70.9890   22.2250  105.8050 C.3   220  ALA220      0.0304
    116  N         69.6280   24.0130  108.4630 N.am  221  VAL221     -0.1966
    117  CA        68.5080   24.8360  108.8740 C.3   221  VAL221      0.1727
    118  C         68.5040   26.2530  108.3140 C.2   221  VAL221      0.2616
    119  O         69.4670   27.0090  108.4640 O.2   221  VAL221     -0.2715
    120  CB        68.5050   24.8580  110.4070 C.3   221  VAL221      0.0290
    121  CG1       67.2860   25.5960  110.9400 C.3   221  VAL221      0.0023
    122  CG2       68.5430   23.4250  110.9230 C.3   221  VAL221      0.0023
    123  N         67.3100   26.7110  107.9140 N.am  222  LYS222     -0.1977
    124  CA        67.1500   28.0570  107.3930 C.3   222  LYS222      0.1596
    125  C         66.6890   28.9340  108.5430 C.2   222  LYS222      0.2287
    126  O         65.8250   28.5390  109.3300 O.2   222  LYS222     -0.2864
    127  CB        66.0910   28.0690  106.2980 C.3   222  LYS222      0.0298
    128  CG        65.6170   29.4620  105.8970 C.3   222  LYS222      0.0038
    129  CD        64.2930   29.3500  105.1580 C.3   222  LYS222      0.0206
    130  CE        63.8450   30.7020  104.6190 C.3   222  LYS222      0.1093
    131  NZ        62.4150   30.6780  104.3470 N.3   222  LYS222     -0.1314
    132  N         64.4970   31.3010  110.0860 N.3   224  GLU224     -0.1231
    133  CA        63.2360   31.9590  109.8180 C.3   224  GLU224      0.1699
    134  C         63.0600   33.1610  110.7220 C.2   224  GLU224      0.2592
    135  O         63.4060   33.0870  111.8940 O.2   224  GLU224     -0.2718
    136  CB        62.1000   30.9840  110.0720 C.3   224  GLU224      0.0402
    137  CG        62.0080   29.9000  109.0130 C.3   224  GLU224      0.1161
    138  CD        61.3980   30.3990  107.7130 C.2   224  GLU224      0.3649
    139  OE1       61.0090   31.5640  107.6560 O.co2 224  GLU224     -0.2457
    140  OE2       61.1300   29.5800  106.8390 O.co2 224  GLU224     -0.2457
    141  N         62.8250   34.3420  110.1510 N.am  225  GLU225     -0.1979
    142  CA        62.6290   35.5230  110.9840 C.3   225  GLU225      0.1602
    143  C         61.5980   35.3040  112.0860 C.2   225  GLU225      0.2287
    144  O         60.4430   34.9680  111.8290 O.2   225  GLU225     -0.2864
    145  CB        62.1830   36.7010  110.1250 C.3   225  GLU225      0.0415
    146  CG        62.1620   38.0210  110.8860 C.3   225  GLU225      0.1163
    147  CD        63.5400   38.4660  111.3570 C.2   225  GLU225      0.3649
    148  OE1       63.6500   38.9550  112.4830 O.co2 225  GLU225     -0.2457
    149  OE2       64.5160   38.2070  110.6520 O.co2 225  GLU225     -0.2457
    150  N         61.4820   32.7770  114.0220 N.3   227  GLY227     -0.1210
    151  CA        61.3390   31.3600  114.3080 C.3   227  GLY227      0.1956
    152  C         62.0550   30.9920  115.5970 C.2   227  GLY227      0.2612
    153  O         63.2790   31.1120  115.7040 O.2   227  GLY227     -0.2717
    154  N         61.3750   30.2660  116.4760 N.am  228  GLN228     -0.1965
    155  CA        61.9950   29.9220  117.7400 C.3   228  GLN228      0.1733
    156  C         63.1660   28.9670  117.5870 C.2   228  GLN228      0.2616
    157  O         64.2570   29.2390  118.0700 O.2   228  GLN228     -0.2715
    158  CB        60.9520   29.3340  118.6760 C.3   228  GLN228      0.0408
    159  CG        61.4880   29.0680  120.0730 C.3   228  GLN228      0.0908
    160  CD        60.3870   28.6420  121.0370 C.2   228  GLN228      0.2608
    161  OE1       59.2050   28.6550  120.6990 O.2   228  GLN228     -0.2717
    162  NE2       60.7430   28.2370  122.2550 N.am  228  GLN228     -0.0878
    163  N         62.9230   27.7350  117.1660 N.am  229  VAL229     -0.1963
    164  CA        64.0340   26.8040  117.0280 C.3   229  VAL229      0.1727
    165  C         65.1210   27.1840  116.0220 C.2   229  VAL229      0.2616
    166  O         66.3070   27.0240  116.3150 O.2   229  VAL229     -0.2715
    167  CB        63.4890   25.4110  116.7000 C.3   229  VAL229      0.0290
    168  CG1       64.6280   24.4520  116.3900 C.3   229  VAL229      0.0023
    169  CG2       62.6670   24.9040  117.8710 C.3   229  VAL229      0.0023
    170  N         64.7930   27.6920  114.8240 N.am  230  SER230     -0.1950
    171  CA        65.8730   28.0020  113.9010 C.3   230  SER230      0.1924
    172  C         66.7500   29.1410  114.3970 C.2   230  SER230      0.2314
    173  O         67.9630   29.1280  114.2100 O.2   230  SER230     -0.2863
    174  CB        65.3290   28.3200  112.5100 C.3   230  SER230      0.2116
    175  OG        64.4600   29.4410  112.5190 O.3   230  SER230     -0.2180
    176  N         65.6480   26.2210  101.0910 N.3   269  VAL269     -0.1245
    177  CA        66.0480   25.1500  101.9850 C.3   269  VAL269      0.1561
    178  C         65.3370   23.8450  101.6580 C.2   269  VAL269      0.2260
    179  O         65.7370   22.7760  102.1210 O.2   269  VAL269     -0.2867
    180  CB        65.7850   25.5890  103.4330 C.3   269  VAL269      0.0252
    181  CG1       64.2960   25.5940  103.7290 C.3   269  VAL269      0.0019
    182  CG2       66.5270   24.6800  104.3950 C.3   269  VAL269      0.0019
    183  N         67.0640   20.3800  101.0050 N.3   272  THR272     -0.1218
    184  CA        67.7040   19.4630  101.9310 C.3   272  THR272      0.1862
    185  C         67.4690   17.9850  101.6630 C.2   272  THR272      0.2287
    186  O         68.4200   17.2100  101.7050 O.2   272  THR272     -0.2866
    187  CB        67.3670   19.8350  103.3770 C.3   272  THR272      0.1770
    188  OG1       65.9620   20.0140  103.4400 O.3   272  THR272     -0.2211
    189  CG2       68.0900   21.1100  103.7850 C.3   272  THR272      0.0375
    190  N         58.1030   25.7470   98.8830 N.3   364  PRO364     -0.2116
    191  CA        56.8200   26.1660   99.4330 C.3   364  PRO364      0.1372
    192  C         55.6820   25.6000   98.5910 C.2   364  PRO364      0.2244
    193  O         55.8700   25.2720   97.4200 O.2   364  PRO364     -0.2868
    194  CB        56.8660   27.6780   99.4050 C.3   364  PRO364      0.0268
    195  CG        58.3000   28.0890   99.1730 C.3   364  PRO364      0.0207
    196  CD        59.0860   26.8260   98.8640 C.3   364  PRO364      0.0892
    197  N         57.0720   16.9080   98.9690 N.3   388  GLU388     -0.1231
    198  CA        56.8960   16.9690  100.4150 C.3   388  GLU388      0.1699
    199  C         56.7880   18.3970  100.9450 C.2   388  GLU388      0.2592
    200  O         57.4980   19.3090  100.5180 O.2   388  GLU388     -0.2718
    201  CB        58.0550   16.2940  101.1200 C.3   388  GLU388      0.0402
    202  CG        57.8330   16.2580  102.6190 C.3   388  GLU388      0.1161
    203  CD        59.0130   15.6800  103.3670 C.2   388  GLU388      0.3649
    204  OE1       58.8460   14.6130  103.9560 O.co2 388  GLU388     -0.2457
    205  OE2       60.1290   16.1310  103.1140 O.co2 388  GLU388     -0.2457
    206  N         55.8620   18.6340  101.8720 N.am  389  CYS389     -0.1956
    207  CA        55.7090   19.9680  102.4290 C.3   389  CYS389      0.1843
    208  C         56.4210   20.1120  103.7620 C.2   389  CYS389      0.2625
    209  O         56.4670   19.1850  104.5670 O.2   389  CYS389     -0.2714
    210  CB        54.2420   20.3010  102.6830 C.3   389  CYS389      0.0997
    211  SG        53.1150   19.7820  101.3670 S.3   389  CYS389     -0.0797
    212  N         57.0210   21.2730  104.0070 N.am  390  PHE390     -0.1960
    213  CA        57.6700   21.5000  105.2840 C.3   390  PHE390      0.1771
    214  C         56.6590   22.0720  106.2890 C.2   390  PHE390      0.2620
    215  O         57.0070   22.8860  107.1450 O.2   390  PHE390     -0.2715
    216  CB        58.8340   22.4670  105.1060 C.3   390  PHE390      0.0574
    217  CG        60.1070   21.8250  104.5670 C.ar  390  PHE390     -0.0200
    218  CD1       61.2870   22.5630  104.5520 C.ar  390  PHE390     -0.0042
    219  CD2       60.1030   20.5210  104.0960 C.ar  390  PHE390     -0.0042
    220  CE1       62.4570   21.9950  104.0690 C.ar  390  PHE390     -0.0003
    221  CE2       61.2820   19.9630  103.6160 C.ar  390  PHE390     -0.0003
    222  CZ        62.4590   20.6950  103.6020 C.ar  390  PHE390     -0.0000
    223  N         55.3750   21.9990  105.9280 N.am  391  GLY391     -0.1954
    224  CA        54.2880   22.4610  106.7810 C.3   391  GLY391      0.1869
    225  C         53.1940   21.4100  106.6640 C.2   391  GLY391      0.2309
    226  O         53.4820   20.2940  106.2440 O.2   391  GLY391     -0.2863
@<TRIPOS>BOND
     1   193   192    2
     2   192   191    1
     3   196   190    1
     4   196   195    1
     5   190   191    1
     6   197   198    1
     7   195   194    1
     8   194   191    1
     9   198   199    1
    10   198   201    1
    11   200   199    2
    12   199   206   am
    13   183   184    1
    14   176   177    1
    15   201   202    1
    16   211   210    1
    17   178   177    1
    18   178   179    2
    19   185   186    2
    20   185   184    1
    21   206   207    1
    22   184   187    1
    23   177   180    1
    24   207   210    1
    25   207   208    1
    26   202   203    1
    27   205   203   ar
    28   203   204   ar
    29   187   188    1
    30   187   189    1
    31   180   181    1
    32   180   182    1
    33   222   221   ar
    34   222   220   ar
    35   221   219   ar
    36   208   212   am
    37   208   209    2
    38   212   213    1
    39   220   218   ar
    40   219   217   ar
    41   131   130    1
    42   218   217   ar
    43   217   216    1
    44   130   129    1
    45   216   213    1
    46   110   109    1
    47   129   128    1
    48   109   106    1
    49   213   214    1
    50   115   112    1
    51   128   127    1
    52   223   214   am
    53   223   224    1
    54   226   225    2
    55   214   215    2
    56   127   124    1
    57   106   107    1
    58   106   105    1
    59   225   224    1
    60   107   108    2
    61   140   138   ar
    62   114   113    2
    63   112   113    1
    64   112   111    1
    65    61    62    1
    66   124   123    1
    67   124   125    1
    68    68    70   ar
    69    68    66   ar
    70   105    95   am
    71    70    71   ar
    72   113   116   am
    73   139   138   ar
    74   138   137    1
    75   123   118   am
    76    62    65    1
    77    62    63    1
    78    65    66    1
    79   118   119    2
    80   118   117    1
    81   116   117    1
    82    66    67   ar
    83   125   126    2
    84    71    72    1
    85    71    69   ar
    86   117   120    1
    87    95    96    2
    88    95    94    1
    89   137   136    1
    90    42    40   am
    91    63    64    2
    92    67    69   ar
    93    94    97    1
    94    94    93    1
    95   133   136    1
    96   133   132    1
    97   133   134    1
    98   145   146    1
    99   145   142    1
   100   141   134   am
   101   141   142    1
   102    92    90   am
   103    40    41    2
   104    40    39    1
   105    87    86    2
   106    50    49    2
   107    99   101   ar
   108    99    98   ar
   109   120   122    1
   110   120   121    1
   111    97    98    1
   112   149   147   ar
   113   134   135    2
   114    93    86   am
   115    86    85    1
   116    52    53    1
   117   146   147    1
   118    56    53    1
   119    56    57    1
   120    88    89    1
   121    88    85    1
   122    39    36    1
   123   101   103   ar
   124   142   143    1
   125    90    91    2
   126    90    89    1
   127    60    59    1
   128    58    57    1
   129    58    59    1
   130    98   100   ar
   131    49    51   am
   132    49    48    1
   133   147   148   ar
   134    53    54    1
   135    85    84    1
   136   144   143    2
   137    43    44    1
   138    48    47    1
   139   103   104    1
   140   103   102   ar
   141    44    47    1
   142    44    45    1
   143    38    37    2
   144    36    37    1
   145    36    35    1
   146   174   175    1
   147   174   171    1
   148   100   102   ar
   149    84    75   am
   150    22    21    2
   151    54    55    2
   152    35    26   am
   153    46    45    2
   154    18    17    2
   155   171   172    1
   156   171   170    1
   157    75    76    2
   158    75    74    1
   159    21    20    1
   160    21    23   am
   161   150   151    1
   162    20    19    1
   163    26    27    2
   164    26    25    1
   165   173   172    2
   166   151   152    1
   167    77    74    1
   168    77    78    1
   169    25    24    1
   170    25    28    1
   171    17    24   am
   172    17    16    1
   173   170   165   am
   174    74    73    1
   175    79    78    1
   176    79    80    1
   177    19    16    1
   178    28    29    1
   179   152   153    2
   180   152   154   am
   181    16    15    1
   182    80    81    2
   183     7     6    2
   184   165   166    2
   185   165   164    1
   186   168   167    1
   187   154   155    1
   188    29    30    1
   189   167   164    1
   190   167   169    1
   191    81    83    1
   192    81    82    1
   193   164   163    1
   194     6     5    1
   195     6     8   am
   196   163   156   am
   197     5     2    1
   198   156   155    1
   199   156   157    2
   200    14    13    1
   201    30    31    1
   202   155   158    1
   203    34    32    1
   204    13    10    1
   205    12    11    2
   206   158   159    1
   207    32    31    2
   208    32    33    1
   209     2     1    1
   210     2     3    1
   211    11    10    1
   212     4     3    2
   213    10     9    1
   214   159   160    1
   215   161   160    2
   216   160   162   am
