@<TRIPOS>MOLECULE
tmp/1gviA00.pdb
 201 196 0 0 0
SMALL
GASTEIGER

@<TRIPOS>ATOM
      1  N         55.1670   69.8230  -10.7680 N.3   168  THR168     -0.1218
      2  CA        54.1050   69.9770   -9.7770 C.3   168  THR168      0.1862
      3  C         53.1020   70.9750  -10.3980 C.2   168  THR168      0.2287
      4  O         52.8190   72.0540   -9.8460 O.2   168  THR168     -0.2866
      5  CB        54.6310   70.5110   -8.4320 C.3   168  THR168      0.1770
      6  OG1       55.5760   69.5800   -7.8860 O.3   168  THR168     -0.2211
      7  CG2       53.4750   70.6840   -7.4470 C.3   168  THR168      0.0375
      8  N         47.7190   66.5750   -6.8870 N.3   205  HIS205     -0.1241
      9  CA        47.5210   65.3960   -6.0430 C.3   205  HIS205      0.1621
     10  C         46.5130   65.8920   -5.0050 C.2   205  HIS205      0.2264
     11  O         46.7200   66.9210   -4.3580 O.2   205  HIS205     -0.2867
     12  CB        48.8290   64.9670   -5.3760 C.3   205  HIS205      0.0745
     13  CG        49.3500   65.9460   -4.3690 C.ar  205  HIS205      0.0817
     14  ND1       48.7230   66.1830   -3.1660 N.ar  205  HIS205     -0.2268
     15  CD2       50.4450   66.7420   -4.3830 C.ar  205  HIS205      0.1154
     16  CE1       49.4090   67.0800   -2.4800 C.ar  205  HIS205      0.1986
     17  NE2       50.4600   67.4350   -3.1960 N.ar  205  HIS205     -0.2212
     18  N         45.6960   65.1920   -1.9260 N.3   207  TYR207     -0.1241
     19  CA        45.8690   64.8040   -0.5220 C.3   207  TYR207      0.1605
     20  C         45.7260   65.9600    0.4740 C.2   207  TYR207      0.2264
     21  O         45.3230   65.7560    1.6250 O.2   207  TYR207     -0.2867
     22  CB        47.2070   64.0740   -0.3320 C.3   207  TYR207      0.0534
     23  CG        47.2100   62.6900   -0.9510 C.ar  207  TYR207     -0.0201
     24  CD1       46.4790   61.6480   -0.3850 C.ar  207  TYR207     -0.0009
     25  CD2       47.9090   62.4320   -2.1300 C.ar  207  TYR207     -0.0009
     26  CE1       46.4420   60.3840   -0.9820 C.ar  207  TYR207      0.0417
     27  CE2       47.8790   61.1700   -2.7300 C.ar  207  TYR207      0.0417
     28  CZ        47.1440   60.1560   -2.1530 C.ar  207  TYR207      0.1957
     29  OH        47.0990   58.9250   -2.7580 O.3   207  TYR207     -0.2866
     30  N         45.0170   63.6160    8.0080 N.3   247  HIS247     -0.1241
     31  CA        45.2150   65.0650    8.0110 C.3   247  HIS247      0.1621
     32  C         44.3070   65.7100    6.9630 C.2   247  HIS247      0.2264
     33  O         43.7330   65.0200    6.1140 O.2   247  HIS247     -0.2867
     34  CB        46.6700   65.3960    7.6850 C.3   247  HIS247      0.0745
     35  CG        47.1690   64.7280    6.4440 C.ar  247  HIS247      0.0817
     36  ND1       47.5170   63.3960    6.4060 N.ar  247  HIS247     -0.2268
     37  CD2       47.3240   65.1930    5.1820 C.ar  247  HIS247      0.1154
     38  CE1       47.8630   63.0670    5.1740 C.ar  247  HIS247      0.1986
     39  NE2       47.7540   64.1400    4.4110 N.ar  247  HIS247     -0.2212
     40  N         51.2790   66.3150    8.8560 N.3   289  PHE289     -0.1227
     41  CA        51.7150   65.0830    8.1970 C.3   289  PHE289      0.1736
     42  C         53.0970   64.6000    8.6220 C.2   289  PHE289      0.2595
     43  O         53.2250   63.7210    9.4780 O.2   289  PHE289     -0.2718
     44  CB        51.6880   65.2280    6.6750 C.3   289  PHE289      0.0547
     45  CG        52.2820   64.0480    5.9630 C.ar  289  PHE289     -0.0202
     46  CD1       51.8150   62.7630    6.2190 C.ar  289  PHE289     -0.0042
     47  CD2       53.3550   64.2060    5.0980 C.ar  289  PHE289     -0.0042
     48  CE1       52.4110   61.6580    5.6320 C.ar  289  PHE289     -0.0003
     49  CE2       53.9570   63.1030    4.5060 C.ar  289  PHE289     -0.0003
     50  CZ        53.4850   61.8280    4.7760 C.ar  289  PHE289     -0.0000
     51  N         54.1280   65.1510    7.9990 N.am  290  ALA290     -0.1966
     52  CA        55.4830   64.7840    8.3510 C.3   290  ALA290      0.1728
     53  C         56.0150   66.0250    9.0270 C.2   290  ALA290      0.2616
     54  O         56.4460   65.9900   10.1710 O.2   290  ALA290     -0.2715
     55  CB        56.2850   64.4700    7.1160 C.3   290  ALA290      0.0334
     56  N         55.9510   67.1300    8.3020 N.am  291  PHE291     -0.1960
     57  CA        56.3880   68.4340    8.7750 C.3   291  PHE291      0.1771
     58  C         55.8950   69.3880    7.7030 C.2   291  PHE291      0.2619
     59  O         56.4150   70.4940    7.5490 O.2   291  PHE291     -0.2715
     60  CB        57.9180   68.5080    8.9030 C.3   291  PHE291      0.0574
     61  CG        58.4680   67.7640   10.0940 C.ar  291  PHE291     -0.0200
     62  CD1       58.1710   68.1750   11.3870 C.ar  291  PHE291     -0.0042
     63  CD2       59.2520   66.6290    9.9260 C.ar  291  PHE291     -0.0042
     64  CE1       58.6440   67.4610   12.4970 C.ar  291  PHE291     -0.0003
     65  CE2       59.7280   65.9130   11.0270 C.ar  291  PHE291     -0.0003
     66  CZ        59.4210   66.3310   12.3120 C.ar  291  PHE291     -0.0000
     67  N         54.8840   68.9210    6.9660 N.am  292  VAL292     -0.1977
     68  CA        54.2410   69.6610    5.8780 C.3   292  VAL292      0.1596
     69  C         53.1200   70.5540    6.3970 C.2   292  VAL292      0.2287
     70  O         51.9580   70.1480    6.4370 O.2   292  VAL292     -0.2864
     71  CB        53.6400   68.6990    4.8380 C.3   292  VAL292      0.0276
     72  CG1       52.7320   69.4610    3.8790 C.3   292  VAL292      0.0022
     73  CG2       54.7530   68.0100    4.0770 C.3   292  VAL292      0.0022
     74  N         49.4060   70.7750    5.6710 N.3   295  MET295     -0.1196
     75  CA        48.6890   69.5260    5.9220 C.3   295  MET295      0.1786
     76  C         48.6640   69.2140    7.4310 C.2   295  MET295      0.2306
     77  O         49.4980   68.4530    7.9280 O.2   295  MET295     -0.2863
     78  CB        49.3390   68.3570    5.1650 C.2   295  MET295      0.0070
     79  CG        49.3610   68.5000    3.6390 C.2   295  MET295      0.0282
     80  SD        49.6180   66.9390    2.7170 S.3   295  MET295     -0.1125
     81  CE        51.0140   66.2570    3.6030 C.3   295  MET295      0.0742
     82  N         40.6550   53.2830    0.3460 N.3   326  ARG326     -0.1245
     83  CA        42.0980   53.1230    0.4970 C.3   326  ARG326      0.1563
     84  C         42.3790   54.1170    1.6190 C.2   326  ARG326      0.2260
     85  O         42.3490   55.3250    1.3980 O.2   326  ARG326     -0.2867
     86  CB        42.8320   53.5790   -0.7700 C.3   326  ARG326      0.0307
     87  CG        44.3300   53.2130   -0.8470 C.3   326  ARG326      0.0489
     88  CD        45.1490   53.6340    0.3820 C.3   326  ARG326      0.2205
     89  NE        45.5300   55.0510    0.4350 N.pl3 326  ARG326     -0.0865
     90  CZ        46.5430   55.5850   -0.2400 C.cat 326  ARG326      0.5346
     91  NH1       47.2830   54.8270   -1.0370 N.pl3 326  ARG326      0.1354
     92  NH2       46.8460   56.8660   -0.0880 N.pl3 326  ARG326      0.1354
     93  N         44.5180   56.2920    3.7940 N.3   328  ASP328     -0.1225
     94  CA        45.8450   56.9020    3.7150 C.3   328  ASP328      0.1805
     95  C         46.4950   57.1830    5.0550 C.2   328  ASP328      0.2597
     96  O         45.8830   57.8030    5.9190 O.2   328  ASP328     -0.2718
     97  CB        45.7520   58.2090    2.9230 C.3   328  ASP328      0.1424
     98  CG        47.0900   58.9300    2.8060 C.2   328  ASP328      0.3668
     99  OD1       48.0040   58.3830    2.1480 O.co2 328  ASP328     -0.2456
    100  OD2       47.2220   60.0430    3.3690 O.co2 328  ASP328     -0.2456
    101  N         47.7440   56.7430    5.2110 N.am  329  VAL329     -0.1980
    102  CA        48.4980   56.9560    6.4470 C.3   329  VAL329      0.1595
    103  C         47.7090   56.4020    7.6340 C.2   329  VAL329      0.2287
    104  O         47.8220   56.8880    8.7590 O.2   329  VAL329     -0.2864
    105  CB        48.7530   58.4630    6.6690 C.3   329  VAL329      0.0276
    106  CG1       49.7540   58.6730    7.7800 C.3   329  VAL329      0.0022
    107  CG2       49.2490   59.0950    5.3870 C.3   329  VAL329      0.0022
    108  N         48.5490   56.0870   11.4070 N.3   332  GLU332     -0.1245
    109  CA        48.7160   57.2260   12.3010 C.3   332  GLU332      0.1567
    110  C         47.4100   57.6670   12.9690 C.2   332  GLU332      0.2260
    111  O         47.2890   58.7980   13.4370 O.2   332  GLU332     -0.2867
    112  CB        49.3540   58.3910   11.5530 C.3   332  GLU332      0.0388
    113  CG        50.8720   58.2910   11.4620 C.3   332  GLU332      0.1160
    114  CD        51.4920   59.3950   10.6090 C.2   332  GLU332      0.3649
    115  OE1       51.1100   60.5830   10.7800 O.co2 332  GLU332     -0.2457
    116  OE2       52.3700   59.0690    9.7760 O.co2 332  GLU332     -0.2457
    117  N         46.6220   51.8360    4.3720 N.3   357  LEU357     -0.1245
    118  CA        47.9660   52.0820    3.8790 C.3   357  LEU357      0.1561
    119  C         48.9580   52.0530    5.0300 C.2   357  LEU357      0.2260
    120  O         49.2070   53.0680    5.6670 O.2   357  LEU357     -0.2867
    121  CB        48.0000   53.4450    3.1810 C.3   357  LEU357      0.0270
    122  CG        49.1630   53.8990    2.2890 C.3   357  LEU357      0.0019
    123  CD1       50.4470   54.0050    3.0830 C.3   357  LEU357      0.0001
    124  CD2       49.3240   52.9340    1.1390 C.3   357  LEU357      0.0001
    125  N         52.8770   50.9500    5.9330 N.3   359  TRP359     -0.1241
    126  CA        54.1850   50.5560    5.4140 C.3   359  TRP359      0.1605
    127  C         54.8910   49.4090    6.1170 C.2   359  TRP359      0.2264
    128  O         55.4440   48.5190    5.4710 O.2   359  TRP359     -0.2867
    129  CB        55.1060   51.7810    5.3550 C.3   359  TRP359      0.0550
    130  CG        55.5160   52.0310    3.9470 C.ar  359  TRP359      0.0003
    131  CD1       54.6940   52.0290    2.8490 C.ar  359  TRP359      0.0946
    132  CD2       56.8490   52.1980    3.4450 C.ar  359  TRP359      0.0152
    133  NE1       55.4320   52.1730    1.6970 N.ar  359  TRP359     -0.2442
    134  CE2       56.7570   52.2780    2.0300 C.ar  359  TRP359      0.0810
    135  CE3       58.1140   52.2840    4.0480 C.ar  359  TRP359      0.0012
    136  CZ2       57.8860   52.4360    1.2090 C.ar  359  TRP359      0.0191
    137  CZ3       59.2400   52.4430    3.2270 C.ar  359  TRP359      0.0001
    138  CH2       59.1130   52.5150    1.8240 C.ar  359  TRP359      0.0015
    139  N         53.3840   45.9350    1.1500 N.3   377  TYR377     -0.1241
    140  CA        54.6580   46.5110    0.7550 C.3   377  TYR377      0.1605
    141  C         55.8390   45.5630    0.9360 C.2   377  TYR377      0.2264
    142  O         56.6240   45.3860    0.0080 O.2   377  TYR377     -0.2867
    143  CB        54.9270   47.8170    1.5120 C.3   377  TYR377      0.0534
    144  CG        54.5320   49.0720    0.7450 C.ar  377  TYR377     -0.0201
    145  CD1       55.4270   49.6970   -0.1320 C.ar  377  TYR377     -0.0009
    146  CD2       53.2540   49.6280    0.8900 C.ar  377  TYR377     -0.0009
    147  CE1       55.0560   50.8500   -0.8440 C.ar  377  TYR377      0.0417
    148  CE2       52.8710   50.7760    0.1840 C.ar  377  TYR377      0.0417
    149  CZ        53.7740   51.3830   -0.6800 C.ar  377  TYR377      0.1957
    150  OH        53.3940   52.5230   -1.3680 O.3   377  TYR377     -0.2866
    151  N         52.1280   55.8050   -7.2430 N.3   423  HIS423     -0.1226
    152  CA        52.4430   57.1650   -7.6260 C.3   423  HIS423      0.1752
    153  C         53.5240   57.7690   -6.7480 C.2   423  HIS423      0.2596
    154  O         53.8410   58.9440   -6.8830 O.2   423  HIS423     -0.2718
    155  CB        51.1820   57.9920   -7.5040 C.3   423  HIS423      0.0759
    156  CG        50.4940   57.8180   -6.1900 C.ar  423  HIS423      0.0818
    157  ND1       50.4760   58.7970   -5.2210 N.ar  423  HIS423     -0.2268
    158  CD2       49.8490   56.7520   -5.6620 C.ar  423  HIS423      0.1154
    159  CE1       49.8490   58.3410   -4.1510 C.ar  423  HIS423      0.1986
    160  NE2       49.4600   57.1020   -4.3930 N.ar  423  HIS423     -0.2212
    161  N         54.0910   56.9750   -5.8470 N.am  424  ASP424     -0.1960
    162  CA        55.1250   57.4860   -4.9450 C.3   424  ASP424      0.1840
    163  C         56.5100   56.8740   -5.1830 C.2   424  ASP424      0.2622
    164  O         57.5370   57.4170   -4.7500 O.2   424  ASP424     -0.2715
    165  CB        54.6950   57.2510   -3.4950 C.3   424  ASP424      0.1450
    166  CG        53.2870   57.7630   -3.2140 C.2   424  ASP424      0.3671
    167  OD1       53.0570   58.9910   -3.3270 O.co2 424  ASP424     -0.2456
    168  OD2       52.4110   56.9310   -2.8820 O.co2 424  ASP424     -0.2456
    169  N         56.5250   55.7480   -5.8870 N.am  425  THR425     -0.1951
    170  CA        57.7610   55.0450   -6.1950 C.3   425  THR425      0.1897
    171  C         58.0900   55.0350   -7.6940 C.2   425  THR425      0.2313
    172  O         57.1960   55.1510   -8.5390 O.2   425  THR425     -0.2863
    173  CB        57.6620   53.6060   -5.7090 C.3   425  THR425      0.1794
    174  OG1       56.3840   53.0760   -6.0870 O.3   425  THR425     -0.2208
    175  CG2       57.8210   53.5440   -4.1940 C.3   425  THR425      0.0378
    176  N         58.9300   60.3260   -7.6290 N.3   468  ASP468     -0.1225
    177  CA        57.9720   61.4250   -7.6030 C.3   468  ASP468      0.1790
    178  C         58.7220   62.6890   -8.0150 C.2   468  ASP468      0.2439
    179  O         59.8250   62.9490   -7.5260 O.2   468  ASP468     -0.2733
    180  CB        57.4060   61.5920   -6.1910 C.3   468  ASP468      0.1423
    181  CG        56.1860   62.5040   -6.1470 C.2   468  ASP468      0.3668
    182  OD1       56.2620   63.6570   -6.6280 O.co2 468  ASP468     -0.2456
    183  OD2       55.1440   62.0640   -5.6180 O.co2 468  ASP468     -0.2456
    184  N         58.1320   63.4990   -8.9090 N.am  469  PRO469     -0.2729
    185  CA        56.8260   63.3200   -9.5500 C.3   469  PRO469      0.1401
    186  C         56.9050   62.6720  -10.9300 C.2   469  PRO469      0.2269
    187  O         55.9850   62.8060  -11.7370 O.2   469  PRO469     -0.2865
    188  CB        56.3150   64.7420   -9.6340 C.3   469  PRO469      0.0296
    189  CG        57.5690   65.4790  -10.0390 C.3   469  PRO469      0.0237
    190  CD        58.6450   64.8610   -9.1550 C.3   469  PRO469      0.0939
    191  N         54.4880   59.9170  -12.3550 N.3   472  ARG472     -0.1245
    192  CA        53.1890   60.4620  -12.7160 C.3   472  ARG472      0.1563
    193  C         53.1010   61.1340  -14.0920 C.2   472  ARG472      0.2260
    194  O         52.4300   62.1600  -14.2340 O.2   472  ARG472     -0.2867
    195  CB        52.7500   61.4520  -11.6300 C.3   472  ARG472      0.0307
    196  CG        52.6910   60.8420  -10.2330 C.3   472  ARG472      0.0489
    197  CD        52.5190   61.8950   -9.1550 C.3   472  ARG472      0.2205
    198  NE        52.4540   61.2880   -7.8310 N.pl3 472  ARG472     -0.0865
    199  CZ        52.4970   61.9690   -6.6910 C.cat 472  ARG472      0.5346
    200  NH1       52.6080   63.2890   -6.7120 N.pl3 472  ARG472      0.1354
    201  NH2       52.4320   61.3300   -5.5300 N.pl3 472  ARG472      0.1354
@<TRIPOS>BOND
     1   194   193    2
     2   193   192    1
     3   192   191    1
     4   192   195    1
     5   187   186    2
     6   195   196    1
     7   186   185    1
     8     1     2    1
     9     3     4    2
    10     3     2    1
    11   196   197    1
    12   189   188    1
    13   189   190    1
    14     2     5    1
    15   188   185    1
    16   185   184    1
    17   197   198    1
    18   190   184    1
    19   184   178   am
    20   172   171    2
    21     5     6    1
    22     5     7    1
    23   178   177    1
    24   178   179    2
    25   198   199    2
    26   171   170    1
    27   176   177    1
    28   152   155    1
    29   152   151    1
    30   152   153    1
    31   177   180    1
    32   155   156    1
    33     8     9    1
    34   154   153    2
    35   153   161   am
    36   200   199    1
    37   199   201    1
    38   182   181   ar
    39   170   169    1
    40   170   173    1
    41   180   181    1
    42   156   158   ar
    43   156   157   ar
    44   181   183   ar
    45   174   173    1
    46     9    12    1
    47     9    10    1
    48   169   163   am
    49   161   162    1
    50   173   175    1
    51   158   160   ar
    52    12    13    1
    53   157   159   ar
    54   163   162    1
    55   163   164    2
    56    10    11    2
    57   162   165    1
    58   160   159   ar
    59    15    13   ar
    60    15    17   ar
    61    13    14   ar
    62   165   166    1
    63   167   166   ar
    64   166   168   ar
    65    17    16   ar
    66    14    16   ar
    67    29    28    1
    68    27    28   ar
    69    27    25   ar
    70    28    26   ar
    71    25    23   ar
    72    18    19    1
    73   150   149    1
    74    91    90    1
    75    26    24   ar
    76    23    24   ar
    77    23    22    1
    78    87    86    1
    79    87    88    1
    80   147   149   ar
    81   147   145   ar
    82    86    83    1
    83   149   148   ar
    84    19    22    1
    85    19    20    1
    86    90    92    1
    87    90    89    2
    88   145   144   ar
    89   142   141    2
    90   148   146   ar
    91    82    83    1
    92    88    89    1
    93    20    21    2
    94    83    84    1
    95   144   146   ar
    96   144   143    1
    97   140   141    1
    98   140   139    1
    99   140   143    1
   100   124   122    1
   101   136   138   ar
   102   136   134   ar
   103    85    84    2
   104   133   134   ar
   105   133   131   ar
   106   138   137   ar
   107   134   132   ar
   108    99    98   ar
   109   122   123    1
   110   122   121    1
   111    80    81    1
   112    80    79    1
   113    98    97    1
   114    98   100   ar
   115   131   130   ar
   116    97    94    1
   117   121   118    1
   118   137   135   ar
   119   132   130   ar
   120   132   135   ar
   121    79    78    2
   122    94    93    1
   123    94    95    1
   124   118   117    1
   125   118   119    1
   126    72    71    1
   127   130   129    1
   128    73    71    1
   129    39    38   ar
   130    39    37   ar
   131    49    50   ar
   132    49    47   ar
   133    50    48   ar
   134    71    68    1
   135   119   120    2
   136    95   101   am
   137    95    96    2
   138    47    45   ar
   139    78    75    1
   140    38    36   ar
   141    37    35   ar
   142   101   102    1
   143   129   126    1
   144   107   105    1
   145   126   125    1
   146   126   127    1
   147   128   127    2
   148    48    46   ar
   149    74    75    1
   150    68    69    1
   151    68    67    1
   152    75    76    1
   153    45    46   ar
   154    45    44    1
   155    33    32    2
   156    69    70    2
   157    36    35   ar
   158    35    34    1
   159   102   105    1
   160   102   103    1
   161   105   106    1
   162    44    41    1
   163    32    31    1
   164    67    58   am
   165    55    52    1
   166    76    77    2
   167    59    58    2
   168   103   104    2
   169    34    31    1
   170    58    57    1
   171    51    52    1
   172    51    42   am
   173    30    31    1
   174    41    42    1
   175    41    40    1
   176    56    57    1
   177    56    53   am
   178    52    53    1
   179    42    43    2
   180    57    60    1
   181    60    61    1
   182    53    54    2
   183   116   114   ar
   184    63    61   ar
   185    63    65   ar
   186    61    62   ar
   187   114   115   ar
   188   114   113    1
   189    65    66   ar
   190    62    64   ar
   191   108   109    1
   192   113   112    1
   193   112   109    1
   194   109   110    1
   195    66    64   ar
   196   110   111    2
