@<TRIPOS>MOLECULE
tmp/1gvkB00.pdb
 169 165 0 0 0
SMALL
GASTEIGER

@<TRIPOS>ATOM
      1  N         -0.7510   25.6170   31.9480 N.3    29  THR29      -0.1203
      2  CA        -1.7440   24.6670   32.3670 C.3    29  THR29       0.1994
      3  C         -2.4080   24.9890   33.7200 C.2    29  THR29       0.2618
      4  O         -3.5610   24.6190   33.9120 O.2    29  THR29      -0.2717
      5  CB        -1.1760   23.2220   32.3800 C.3    29  THR29       0.1784
      6  OG1       -2.2110   22.2710   32.6030 O.3    29  THR29      -0.2211
      7  CG2       -0.1170   23.0150   33.4520 C.3    29  THR29       0.0376
      8  N         -1.7140   25.6030   34.6100 N.am   30  CYS30      -0.1969
      9  CA        -2.2450   25.7930   35.9730 C.3    30  CYS30       0.1712
     10  C         -1.5510   26.9970   36.5760 C.2    30  CYS30       0.2296
     11  O         -0.5320   27.4770   36.1060 O.2    30  CYS30      -0.2864
     12  CB        -2.0300   24.5660   36.8750 C.3    30  CYS30       0.0983
     13  SG        -3.0980   23.2030   36.6720 S.3    30  CYS30      -0.0798
     14  N         -3.7250   17.7760   41.2250 N.3    45  HIS45      -0.1241
     15  CA        -4.2650   17.2980   39.9470 C.3    45  HIS45       0.1621
     16  C         -3.5230   17.9430   38.7770 C.2    45  HIS45       0.2264
     17  O         -3.5790   17.4490   37.6600 O.2    45  HIS45      -0.2867
     18  CB        -5.7680   17.4690   39.8880 C.3    45  HIS45       0.0745
     19  CG        -6.2760   18.8000   39.4880 C.ar   45  HIS45       0.0817
     20  ND1       -6.8300   19.6860   40.4160 N.ar   45  HIS45      -0.2268
     21  CD2       -6.3440   19.3930   38.2930 C.ar   45  HIS45       0.1154
     22  CE1       -7.2160   20.7770   39.7400 C.ar   45  HIS45       0.1986
     23  NE2       -6.9160   20.6390   38.4440 N.ar   45  HIS45      -0.2212
     24  N         -3.6490   12.1180   48.0990 N.3    83  TRP83      -0.1241
     25  CA        -4.3620   12.4840   46.8600 C.3    83  TRP83       0.1605
     26  C         -4.7160   11.2690   46.0470 C.2    83  TRP83       0.2264
     27  O         -3.8980   10.3530   45.9030 O.2    83  TRP83      -0.2867
     28  CB        -3.4160   13.3980   46.0360 C.3    83  TRP83       0.0550
     29  CG        -3.8690   13.6200   44.6380 C.ar   83  TRP83       0.0003
     30  CD1       -3.2500   13.1950   43.5140 C.ar   83  TRP83       0.0946
     31  CD2       -5.0410   14.3010   44.2020 C.ar   83  TRP83       0.0152
     32  NE1       -3.9690   13.5590   42.4030 N.ar   83  TRP83      -0.2442
     33  CE2       -5.0750   14.2440   42.8120 C.ar   83  TRP83       0.0810
     34  CE3       -6.1140   14.9500   44.8560 C.ar   83  TRP83       0.0012
     35  CZ2       -6.0880   14.8010   42.0680 C.ar   83  TRP83       0.0191
     36  CZ3       -7.1120   15.5010   44.1120 C.ar   83  TRP83       0.0001
     37  CH2       -7.0810   15.4200   42.7200 C.ar   83  TRP83       0.0015
     38  N         -6.3140   10.7190   42.2130 N.3    85  THR85      -0.1218
     39  CA        -6.7290   11.4120   41.0010 C.3    85  THR85       0.1862
     40  C         -8.1550   11.0860   40.5540 C.2    85  THR85       0.2287
     41  O         -8.7530   11.9320   39.8640 O.2    85  THR85      -0.2866
     42  CB        -5.7180   11.1220   39.9010 C.3    85  THR85       0.1770
     43  OG1       -5.9470   11.9540   38.7580 O.3    85  THR85      -0.2211
     44  CG2       -5.8830    9.6870   39.4410 C.3    85  THR85       0.0375
     45  N        -11.3250   13.7890   43.2030 N.3    88  VAL88      -0.1231
     46  CA       -10.9790   15.1580   43.5860 C.3    88  VAL88       0.1692
     47  C        -11.8160   15.6240   44.8130 C.2    88  VAL88       0.2591
     48  O        -11.3690   16.3920   45.6870 O.2    88  VAL88      -0.2718
     49  CB       -11.0680   16.1500   42.4200 C.3    88  VAL88       0.0266
     50  CG1      -12.4920   16.4290   41.9720 C.3    88  VAL88       0.0020
     51  CG2      -10.4460   17.5150   42.7550 C.3    88  VAL88       0.0020
     52  N        -13.0400   15.1140   44.9270 N.am   89  ALA89      -0.1980
     53  CA       -13.9230   15.4340   46.0150 C.3    89  ALA89       0.1597
     54  C        -13.4550   14.9250   47.3490 C.2    89  ALA89       0.2287
     55  O        -13.8700   15.3940   48.3900 O.2    89  ALA89      -0.2864
     56  CB       -15.3130   14.8070   45.7610 C.3    89  ALA89       0.0319
     57  N        -22.9510   22.2820   47.1270 N.3   164  TRP164     -0.1241
     58  CA       -22.1480   21.1670   46.7450 C.3   164  TRP164      0.1605
     59  C        -22.5080   19.8920   47.4850 C.2   164  TRP164      0.2264
     60  O        -21.9070   18.8630   47.1460 O.2   164  TRP164     -0.2867
     61  CB       -20.7140   21.5410   46.9360 C.3   164  TRP164      0.0550
     62  CG       -20.0930   22.3560   45.8570 C.ar  164  TRP164      0.0003
     63  CD1      -19.8090   23.6940   45.8840 C.ar  164  TRP164      0.0946
     64  CD2      -19.6630   21.8820   44.5810 C.ar  164  TRP164      0.0152
     65  NE1      -19.2510   24.0790   44.7120 N.ar  164  TRP164     -0.2442
     66  CE2      -19.1270   22.9790   43.9140 C.ar  164  TRP164      0.0810
     67  CE3      -19.6760   20.6230   43.9780 C.ar  164  TRP164      0.0012
     68  CZ2      -18.5810   22.8720   42.6230 C.ar  164  TRP164      0.0191
     69  CZ3      -19.1200   20.5430   42.7130 C.ar  164  TRP164      0.0001
     70  CH2      -18.5910   21.6370   42.0720 C.ar  164  TRP164      0.0015
     71  N        -20.0050   16.6870   48.3860 N.3   167  THR167     -0.1218
     72  CA       -18.8000   16.8000   47.5720 C.3   167  THR167      0.1862
     73  C        -17.7440   17.6810   48.2420 C.2   167  THR167      0.2287
     74  O        -16.5640   17.4650   48.1320 O.2   167  THR167     -0.2866
     75  CB       -19.2090   17.3340   46.2090 C.3   167  THR167      0.1770
     76  OG1      -20.0350   16.3530   45.5700 O.3   167  THR167     -0.2211
     77  CG2      -18.0810   17.5830   45.2170 C.3   167  THR167      0.0375
     78  N        -13.5650   30.7470   39.2250 N.3   183  GLY183     -0.1210
     79  CA       -12.4240   30.1220   38.5580 C.3   183  GLY183      0.1956
     80  C        -12.8820   29.3230   37.3590 C.2   183  GLY183      0.2612
     81  O        -14.0660   29.0160   37.1850 O.2   183  GLY183     -0.2717
     82  N        -11.9210   28.9310   36.5280 N.am  184  CYS184     -0.1956
     83  CA       -12.2350   28.0730   35.3920 C.3   184  CYS184      0.1843
     84  C        -10.9710   27.2960   35.0260 C.2   184  CYS184      0.2625
     85  O         -9.9030   27.4760   35.6330 O.2   184  CYS184     -0.2714
     86  CB       -12.7930   28.9310   34.2840 C.3   184  CYS184      0.0997
     87  SG       -13.8690   28.0900   33.0490 S.3   184  CYS184     -0.0797
     88  N        -11.0450   26.4350   33.9980 N.am  185  GLN185     -0.1963
     89  CA        -9.9140   25.5990   33.6830 C.3   185  GLN185      0.1733
     90  C         -8.6910   26.4530   33.4210 C.2   185  GLN185      0.2617
     91  O         -8.7590   27.4840   32.7170 O.2   185  GLN185     -0.2715
     92  CB       -10.2110   24.6830   32.4910 C.3   185  GLN185      0.0408
     93  CG       -11.1130   23.5020   32.8820 C.3   185  GLN185      0.0908
     94  CD       -12.5790   23.8060   33.0340 C.2   185  GLN185      0.2608
     95  OE1      -13.0590   24.8880   32.7230 O.2   185  GLN185     -0.2717
     96  NE2      -13.3550   22.8480   33.5490 N.am  185  GLN185     -0.0878
     97  N         -7.5500   26.0360   33.9670 N.am  186  GLY186     -0.1940
     98  CA        -6.3340   26.7940   33.8610 C.3   186  GLY186      0.2014
     99  C         -6.0650   27.6780   35.0720 C.2   186  GLY186      0.2639
    100  O         -4.9300   28.1790   35.2160 O.2   186  GLY186     -0.2714
    101  N         -7.0390   27.8700   35.9350 N.am  187  ASP187     -0.1957
    102  CA        -6.8480   28.5770   37.2150 C.3   187  ASP187      0.1840
    103  C         -6.4090   27.6180   38.3150 C.2   187  ASP187      0.2622
    104  O         -5.8790   28.0770   39.3330 O.2   187  ASP187     -0.2715
    105  CB        -8.1020   29.2970   37.6590 C.3   187  ASP187      0.1450
    106  CG        -8.4410   30.4780   36.7410 C.2   187  ASP187      0.3671
    107  OD1       -7.5180   31.1850   36.3660 O.co2 187  ASP187     -0.2456
    108  OD2       -9.6590   30.6390   36.4850 O.co2 187  ASP187     -0.2456
    109  N         -6.6760   26.3170   38.1360 N.am  188  SER188     -0.1950
    110  CA        -6.3710   25.2960   39.1240 C.3   188  SER188      0.1924
    111  C         -4.9400   25.4640   39.6230 C.2   188  SER188      0.2314
    112  O         -4.0490   25.7600   38.8360 O.2   188  SER188     -0.2863
    113  CB        -6.4730   23.9070   38.5370 C.3   188  SER188      0.2116
    114  OG        -7.8130   23.5220   38.3250 O.3   188  SER188     -0.2180
    115  N         -6.7610   26.6230   44.1140 N.3   206  THR206     -0.1203
    116  CA        -7.9250   26.3460   43.2780 C.3   206  THR206      0.1994
    117  C         -7.9650   24.8790   42.8740 C.2   206  THR206      0.2619
    118  O         -6.9810   24.3450   42.3380 O.2   206  THR206     -0.2717
    119  CB        -7.8500   27.2550   42.0390 C.3   206  THR206      0.1784
    120  OG1       -7.7610   28.5940   42.5230 O.3   206  THR206     -0.2211
    121  CG2       -9.0760   27.0810   41.1620 C.3   206  THR206      0.0376
    122  N         -9.1150   24.2460   43.1260 N.am  207  SER207     -0.1937
    123  CA        -9.2270   22.7830   42.8760 C.3   207  SER207      0.2055
    124  C        -10.2750   22.4550   41.8270 C.2   207  SER207      0.2643
    125  O         -9.9340   21.8010   40.8490 O.2   207  SER207     -0.2714
    126  CB        -9.4540   22.0830   44.2220 C.3   207  SER207      0.2130
    127  OG        -9.5550   20.6570   44.0220 O.3   207  SER207     -0.2179
    128  N        -11.5410   22.8140   42.0100 N.am  208  PHE208     -0.1959
    129  CA       -12.5560   22.3600   41.0760 C.3   208  PHE208      0.1771
    130  C        -13.7360   23.2930   41.0290 C.2   208  PHE208      0.2619
    131  O        -13.9810   24.1320   41.8830 O.2   208  PHE208     -0.2715
    132  CB       -13.0010   20.9140   41.3590 C.3   208  PHE208      0.0574
    133  CG       -13.6710   20.6600   42.6960 C.ar  208  PHE208     -0.0200
    134  CD1      -15.0800   20.7510   42.8210 C.ar  208  PHE208     -0.0042
    135  CD2      -12.9270   20.2730   43.8260 C.ar  208  PHE208     -0.0042
    136  CE1      -15.6820   20.4220   44.0280 C.ar  208  PHE208     -0.0003
    137  CE2      -13.5360   19.9600   45.0100 C.ar  208  PHE208     -0.0003
    138  CZ       -14.9230   20.0100   45.0960 C.ar  208  PHE208     -0.0000
    139  N        -14.4940   23.1410   39.9140 N.am  209  VAL209     -0.1963
    140  CA       -15.7390   23.7600   39.6360 C.3   209  VAL209      0.1727
    141  C        -16.7580   22.6970   39.2320 C.2   209  VAL209      0.2617
    142  O        -16.4180   21.5310   39.1050 O.2   209  VAL209     -0.2715
    143  CB       -15.6400   24.8830   38.5520 C.3   209  VAL209      0.0290
    144  CG1      -14.7670   26.0230   39.0260 C.3   209  VAL209      0.0023
    145  CG2      -15.2600   24.2490   37.2440 C.3   209  VAL209      0.0023
    146  N        -17.9950   23.1100   39.0350 N.am  210  SER210     -0.1936
    147  CA       -19.0220   22.1900   38.5950 C.3   210  SER210      0.2055
    148  C        -18.7360   21.5810   37.2270 C.2   210  SER210      0.2642
    149  O        -18.2270   22.2320   36.3390 O.2   210  SER210     -0.2714
    150  CB       -20.3800   22.9190   38.5370 C.3   210  SER210      0.2130
    151  OG       -21.4300   22.1260   38.0680 O.3   210  SER210     -0.2179
    152  N        -19.1730   20.3280   37.1070 N.am  211  ARG211     -0.1977
    153  CA       -19.2550   19.6330   35.8430 C.3   211  ARG211      0.1597
    154  C        -20.1820   20.3700   34.8800 C.2   211  ARG211      0.2287
    155  O        -20.0060   20.2370   33.6830 O.2   211  ARG211     -0.2864
    156  CB       -19.6700   18.1670   36.0320 C.3   211  ARG211      0.0334
    157  CG       -18.7300   17.3680   36.9400 C.3   211  ARG211      0.0492
    158  CD       -18.7810   15.8970   36.6120 C.3   211  ARG211      0.2205
    159  NE       -17.8180   15.0860   37.3420 N.pl3 211  ARG211     -0.0865
    160  CZ       -18.0250   14.2510   38.3320 C.cat 211  ARG211      0.5346
    161  NH1      -19.1920   14.0450   38.8550 N.pl3 211  ARG211      0.1354
    162  NH2      -16.9900   13.5900   38.8590 N.pl3 211  ARG211      0.1354
    163  N        -16.6190   28.2090   43.3690 N.3   221  THR221     -0.1218
    164  CA       -15.3330   27.5660   43.1210 C.3   221  THR221      0.1862
    165  C        -14.8330   26.9310   44.4040 C.2   221  THR221      0.2287
    166  O        -15.0130   27.5180   45.4750 O.2   221  THR221     -0.2866
    167  CB       -14.3550   28.6330   42.5360 C.3   221  THR221      0.1770
    168  OG1      -14.9270   29.2880   41.4050 O.3   221  THR221     -0.2211
    169  CG2      -13.0480   28.0340   42.1500 C.3   221  THR221      0.0375
@<TRIPOS>BOND
     1     1     2    1
     2     2     5    1
     3     2     3    1
     4     5     6    1
     5     5     7    1
     6    92    93    1
     7    92    89    1
     8    91    90    2
     9    95    94    2
    10    93    94    1
    11    94    96   am
    12    87    86    1
    13    90    89    1
    14    90    97   am
    15   155   154    2
    16    89    88    1
    17     3     4    2
    18     3     8   am
    19    98    97    1
    20    98    99    1
    21    88    84   am
    22    86    83    1
    23     8     9    1
    24   154   153    1
    25    84    83    1
    26    84    85    2
    27    99   100    2
    28    99   101   am
    29    83    82    1
    30   153   156    1
    31   153   152    1
    32   101   102    1
    33     9    10    1
    34     9    12    1
    35   156   157    1
    36    11    10    2
    37   149   148    2
    38   107   106   ar
    39   108   106   ar
    40    82    80   am
    41   158   157    1
    42   158   159    1
    43    13    12    1
    44   106   105    1
    45   152   148   am
    46    81    80    2
    47   102   105    1
    48   102   103    1
    49   148   147    1
    50   145   143    1
    51   159   160    2
    52    80    79    1
    53    17    16    2
    54   151   150    1
    55   109   103   am
    56   109   110    1
    57    21    23   ar
    58    21    19   ar
    59   103   104    2
    60   114   113    1
    61   160   161    1
    62   160   162    1
    63    23    22   ar
    64   113   110    1
    65   150   147    1
    66   143   144    1
    67   143   140    1
    68    79    78    1
    69   147   146    1
    70    43    42    1
    71    16    15    1
    72   112   111    2
    73   146   141   am
    74   142   141    2
    75   110   111    1
    76   141   140    1
    77    44    42    1
    78    19    18    1
    79    19    20   ar
    80   140   139    1
    81    22    20   ar
    82    41    40    2
    83    18    15    1
    84    42    39    1
    85   139   130   am
    86    15    14    1
    87    40    39    1
    88   125   124    2
    89    39    38    1
    90   130   129    1
    91   130   131    2
    92   129   132    1
    93   129   128    1
    94   121   119    1
    95   132   133    1
    96   168   167    1
    97   124   128   am
    98   124   123    1
    99    50    49    1
   100   119   120    1
   101   119   116    1
   102    35    37   ar
   103    35    33   ar
   104    70    68   ar
   105    70    69   ar
   106   169   167    1
   107   118   117    2
   108    32    33   ar
   109    32    30   ar
   110    49    51    1
   111    49    46    1
   112   167   164    1
   113    68    66   ar
   114   133   134   ar
   115   133   135   ar
   116    69    67   ar
   117    37    36   ar
   118    33    31   ar
   119   134   136   ar
   120   117   122   am
   121   117   116    1
   122   123   122    1
   123   123   126    1
   124   164   163    1
   125   164   165    1
   126    45    46    1
   127   116   115    1
   128    30    29   ar
   129    46    47    1
   130   135   137   ar
   131    66    64   ar
   132    66    65   ar
   133    67    64   ar
   134   127   126    1
   135   136   138   ar
   136    36    34   ar
   137    31    29   ar
   138    31    34   ar
   139   165   166    2
   140    64    62   ar
   141    29    28    1
   142    65    63   ar
   143    47    52   am
   144    47    48    2
   145    52    53    1
   146   137   138   ar
   147    77    75    1
   148    76    75    1
   149    56    53    1
   150    62    63   ar
   151    62    61    1
   152    27    26    2
   153    53    54    1
   154    28    25    1
   155    26    25    1
   156    75    72    1
   157    58    61    1
   158    58    57    1
   159    58    59    1
   160    25    24    1
   161    60    59    2
   162    54    55    2
   163    72    73    1
   164    72    71    1
   165    74    73    2
