@<TRIPOS>MOLECULE
tmp/1gvoA01.pdb
 138 132 0 0 0
SMALL
GASTEIGER

@<TRIPOS>ATOM
      1  N         25.4620    5.8610   20.0210 N.3    24  THR24      -0.1218
      2  CA        25.3340    5.6760   18.5810 C.3    24  THR24       0.1862
      3  C         26.6300    6.1770   17.9330 C.2    24  THR24       0.2287
      4  O         27.0280    7.3240   18.1470 O.2    24  THR24      -0.2866
      5  CB        24.1170    6.4770   18.0570 C.3    24  THR24       0.1770
      6  OG1       22.9120    5.8330   18.4950 O.3    24  THR24      -0.2211
      7  CG2       24.1280    6.5760   16.5350 C.3    24  THR24       0.0375
      8  N         22.2840    2.2380   20.2390 N.3    56  ALA56      -0.1245
      9  CA        20.8980    1.9250   19.9000 C.3    56  ALA56       0.1562
     10  C         20.8650    1.0150   18.6630 C.2    56  ALA56       0.2260
     11  O         21.5310    1.2840   17.6560 O.2    56  ALA56      -0.2867
     12  CB        20.1290    3.2020   19.6380 C.3    56  ALA56       0.0290
     13  N         18.7380    6.1680   11.2060 N.3    66  TYR66      -0.1241
     14  CA        20.0930    6.6710   10.9440 C.3    66  TYR66       0.1605
     15  C         20.9040    5.7100   10.0690 C.2    66  TYR66       0.2264
     16  O         20.8980    4.4980   10.2980 O.2    66  TYR66      -0.2867
     17  CB        20.8730    6.8480   12.2580 C.3    66  TYR66       0.0534
     18  CG        20.3120    7.8590   13.2320 C.ar   66  TYR66      -0.0201
     19  CD1       19.1040    7.6260   13.8960 C.ar   66  TYR66      -0.0009
     20  CD2       20.9950    9.0450   13.5000 C.ar   66  TYR66      -0.0009
     21  CE1       18.5950    8.5540   14.8060 C.ar   66  TYR66       0.0417
     22  CE2       20.4940    9.9790   14.4060 C.ar   66  TYR66       0.0417
     23  CZ        19.2950    9.7260   15.0530 C.ar   66  TYR66       0.1957
     24  OH        18.7940   10.6420   15.9480 O.3    66  TYR66      -0.2866
     25  N         20.8640   -2.0760   23.5540 N.3    98  GLN98      -0.1245
     26  CA        19.7850   -1.1000   23.6310 C.3    98  GLN98       0.1566
     27  C         18.9830   -1.2420   22.3400 C.2    98  GLN98       0.2260
     28  O         19.5390   -1.1390   21.2390 O.2    98  GLN98      -0.2867
     29  CB        20.2940    0.3380   23.7600 C.3    98  GLN98       0.0367
     30  CG        19.1330    1.3130   23.9960 C.3    98  GLN98       0.0905
     31  CD        19.5360    2.7760   23.9620 C.2    98  GLN98       0.2608
     32  OE1       20.0870    3.2550   22.9720 O.2    98  GLN98      -0.2717
     33  NE2       19.2420    3.4980   25.0380 N.am   98  GLN98      -0.0878
     34  N         15.8000    0.0220   19.8840 N.3   100  TRP100     -0.1241
     35  CA        14.9360    1.1660   19.5950 C.3   100  TRP100      0.1605
     36  C         14.1680    1.0750   18.2900 C.2   100  TRP100      0.2264
     37  O         14.4040    0.1970   17.4580 O.2   100  TRP100     -0.2867
     38  CB        15.7450    2.4800   19.5550 C.3   100  TRP100      0.0550
     39  CG        16.6700    2.6560   18.3390 C.ar  100  TRP100      0.0003
     40  CD1       17.0300    1.6970   17.4220 C.ar  100  TRP100      0.0946
     41  CD2       17.4300    3.8290   18.0020 C.ar  100  TRP100      0.0152
     42  NE1       17.9710    2.2010   16.5490 N.ar  100  TRP100     -0.2442
     43  CE2       18.2350    3.5030   16.8820 C.ar  100  TRP100      0.0810
     44  CE3       17.5130    5.1210   18.5430 C.ar  100  TRP100      0.0012
     45  CZ2       19.1160    4.4240   16.2960 C.ar  100  TRP100      0.0191
     46  CZ3       18.3910    6.0370   17.9600 C.ar  100  TRP100      0.0001
     47  CH2       19.1800    5.6810   16.8470 C.ar  100  TRP100      0.0015
     48  N         24.1250   15.3680    7.9930 N.3   140  ARG140     -0.1245
     49  CA        22.9060   15.7290    8.7160 C.3   140  ARG140      0.1563
     50  C         21.8200   16.1120    7.7150 C.2   140  ARG140      0.2260
     51  O         22.0730   16.8670    6.7760 O.2   140  ARG140     -0.2867
     52  CB        23.1790   16.9060    9.6590 C.3   140  ARG140      0.0307
     53  CG        24.2380   16.6150   10.7120 C.3   140  ARG140      0.0489
     54  CD        23.7480   15.5770   11.7020 C.3   140  ARG140      0.2205
     55  NE        22.8120   16.1580   12.6580 N.pl3 140  ARG140     -0.0865
     56  CZ        22.0050   15.4530   13.4410 C.cat 140  ARG140      0.5346
     57  NH1       22.0110   14.1240   13.3810 N.pl3 140  ARG140      0.1354
     58  NH2       21.1940   16.0760   14.2920 N.pl3 140  ARG140      0.1354
     59  N         14.7660    1.4040   24.6160 N.3   179  HIS179     -0.1241
     60  CA        15.0020    2.8430   24.4700 C.3   179  HIS179      0.1621
     61  C         13.6740    3.6050   24.5060 C.2   179  HIS179      0.2264
     62  O         13.0570    3.8450   23.4680 O.2   179  HIS179     -0.2867
     63  CB        15.7270    3.1470   23.1540 C.3   179  HIS179      0.0745
     64  CG        16.3710    4.4990   23.1240 C.ar  179  HIS179      0.0817
     65  ND1       15.9750    5.5280   23.9530 N.ar  179  HIS179     -0.2268
     66  CD2       17.3680    4.9970   22.3550 C.ar  179  HIS179      0.1154
     67  CE1       16.7020    6.6010   23.6940 C.ar  179  HIS179      0.1986
     68  NE2       17.5540    6.3060   22.7290 N.ar  179  HIS179     -0.2212
     69  N         14.6180   10.0740   24.8480 N.3   182  HIS182     -0.1241
     70  CA        15.1510   10.9710   23.8280 C.3   182  HIS182      0.1621
     71  C         14.3470   11.2570   22.5580 C.2   182  HIS182      0.2264
     72  O         14.9230   11.5020   21.4930 O.2   182  HIS182     -0.2867
     73  CB        16.5550   10.4770   23.4730 C.3   182  HIS182      0.0745
     74  CG        17.4530   10.3290   24.6660 C.ar  182  HIS182      0.0817
     75  ND1       18.6160    9.5900   24.6400 N.ar  182  HIS182     -0.2268
     76  CD2       17.3650   10.8460   25.9160 C.ar  182  HIS182      0.1154
     77  CE1       19.2070    9.6580   25.8210 C.ar  182  HIS182      0.1986
     78  NE2       18.4690   10.4140   26.6120 N.ar  182  HIS182     -0.2212
     79  N         12.3970    9.2460   20.7340 N.3   184  TYR184     -0.1241
     80  CA        12.2190    8.1800   19.7550 C.3   184  TYR184      0.1605
     81  C         10.7990    7.6090   19.8720 C.2   184  TYR184      0.2264
     82  O          9.9950    8.1520   20.6320 O.2   184  TYR184     -0.2867
     83  CB        13.3440    7.1480   19.9010 C.3   184  TYR184      0.0534
     84  CG        14.6690    7.7890   19.5050 C.ar  184  TYR184     -0.0201
     85  CD1       14.8730    8.2580   18.2000 C.ar  184  TYR184     -0.0009
     86  CD2       15.6680    8.0310   20.4480 C.ar  184  TYR184     -0.0009
     87  CE1       16.0380    8.9590   17.8470 C.ar  184  TYR184      0.0417
     88  CE2       16.8320    8.7300   20.1060 C.ar  184  TYR184      0.0417
     89  CZ        17.0100    9.1920   18.8090 C.ar  184  TYR184      0.1957
     90  OH        18.1520    9.8870   18.4720 O.3   184  TYR184     -0.2866
     91  N         15.3560    2.5890   29.4600 N.3   231  ARG231     -0.1245
     92  CA        15.9050    3.9320   29.6040 C.3   231  ARG231      0.1563
     93  C         14.7890    4.9380   29.3380 C.2   231  ARG231      0.2260
     94  O         14.0790    4.8450   28.3380 O.2   231  ARG231     -0.2867
     95  CB        17.0680    4.1930   28.6320 C.3   231  ARG231      0.0307
     96  CG        17.8730    5.4360   29.0310 C.3   231  ARG231      0.0489
     97  CD        19.1110    5.7020   28.1710 C.3   231  ARG231      0.2205
     98  NE        20.1770    6.3060   28.9800 N.pl3 231  ARG231     -0.0865
     99  CZ        21.2050    7.0000   28.4980 C.cat 231  ARG231      0.5346
    100  NH1       21.3260    7.2090   27.1950 N.pl3 231  ARG231      0.1354
    101  NH2       22.1340    7.4650   29.3230 N.pl3 231  ARG231      0.1354
    102  N         15.7200   16.4640   22.4340 N.3   239  GLN239     -0.1245
    103  CA        15.5790   16.4830   20.9830 C.3   239  GLN239      0.1566
    104  C         14.1730   16.9220   20.5510 C.2   239  GLN239      0.2260
    105  O         13.5000   16.2490   19.7660 O.2   239  GLN239     -0.2867
    106  CB        15.9530   15.1020   20.4130 C.3   239  GLN239      0.0367
    107  CG        17.4230   14.7580   20.6960 C.3   239  GLN239      0.0905
    108  CD        17.9380   13.4970   20.0110 C.2   239  GLN239      0.2608
    109  OE1       19.0950   13.4530   19.5770 O.2   239  GLN239     -0.2717
    110  NE2       17.1040   12.4630   19.9340 N.am  239  GLN239     -0.0878
    111  N         19.4380   16.5170   28.4200 N.3   272  ASP272     -0.1225
    112  CA        19.7360   16.4770   26.9940 C.3   272  ASP272      0.1805
    113  C         21.1860   16.9560   26.8930 C.2   272  ASP272      0.2597
    114  O         21.7090   17.5530   27.8400 O.2   272  ASP272     -0.2718
    115  CB        18.7920   17.4300   26.2460 C.3   272  ASP272      0.1424
    116  CG        19.0410   17.4590   24.7470 C.2   272  ASP272      0.3668
    117  OD1       20.0070   18.1240   24.3060 O.co2 272  ASP272     -0.2456
    118  OD2       18.2670   16.8160   24.0010 O.co2 272  ASP272     -0.2456
    119  N         21.8430   16.6880   25.7720 N.am  273  LEU273     -0.1979
    120  CA        23.2260   17.1260   25.6070 C.3   273  LEU273      0.1596
    121  C         23.3260   18.6480   25.7320 C.2   273  LEU273      0.2287
    122  O         24.3630   19.1780   26.1300 O.2   273  LEU273     -0.2864
    123  CB        23.7680   16.6800   24.2450 C.3   273  LEU273      0.0297
    124  CG        23.9770   15.1770   24.0320 C.3   273  LEU273      0.0022
    125  CD1       24.3950   14.9220   22.5900 C.3   273  LEU273      0.0001
    126  CD2       25.0370   14.6590   24.9890 C.3   273  LEU273      0.0001
    127  N         30.6010   10.3830   15.1490 N.3   349  TYR349     -0.1241
    128  CA        29.7180    9.7200   14.1890 C.3   349  TYR349      0.1605
    129  C         30.3590    9.3550   12.8530 C.2   349  TYR349      0.2264
    130  O         30.9970   10.1900   12.2080 O.2   349  TYR349     -0.2867
    131  CB        28.4990   10.6040   13.9040 C.3   349  TYR349      0.0534
    132  CG        27.7380   11.0390   15.1340 C.ar  349  TYR349     -0.0201
    133  CD1       26.9750   10.1310   15.8660 C.ar  349  TYR349     -0.0009
    134  CD2       27.7750   12.3670   15.5630 C.ar  349  TYR349     -0.0009
    135  CE1       26.2640   10.5350   16.9970 C.ar  349  TYR349      0.0417
    136  CE2       27.0710   12.7780   16.6910 C.ar  349  TYR349      0.0417
    137  CZ        26.3190   11.8600   17.4020 C.ar  349  TYR349      0.1957
    138  OH        25.6260   12.2650   18.5210 O.3   349  TYR349     -0.2866
@<TRIPOS>BOND
     1    51    50    2
     2    50    49    1
     3    48    49    1
     4    49    52    1
     5    52    53    1
     6    15    16    2
     7    15    14    1
     8    53    54    1
     9    14    13    1
    10    14    17    1
    11    54    55    1
    12   130   129    2
    13    17    18    1
    14    55    56    2
    15   129   128    1
    16    18    20   ar
    17    18    19   ar
    18    57    56    1
    19    56    58    1
    20    20    22   ar
    21    19    21   ar
    22   131   128    1
    23   131   132    1
    24   128   127    1
    25    22    23   ar
    26    21    23   ar
    27    23    24    1
    28   132   134   ar
    29   132   133   ar
    30   134   136   ar
    31   133   135   ar
    32    45    47   ar
    33    45    43   ar
    34     7     5    1
    35    42    43   ar
    36    42    40   ar
    37   136   137   ar
    38    47    46   ar
    39    43    41   ar
    40   135   137   ar
    41   137   138    1
    42    40    39   ar
    43    37    36    2
    44    11    10    2
    45    87    85   ar
    46    87    89   ar
    47     3     4    2
    48     3     2    1
    49    46    44   ar
    50    41    39   ar
    51    41    44   ar
    52     5     6    1
    53     5     2    1
    54    85    84   ar
    55    36    35    1
    56    39    38    1
    57    90    89    1
    58     2     1    1
    59    10     9    1
    60    89    88   ar
    61    84    83    1
    62    84    86   ar
    63    38    35    1
    64   109   108    2
    65    35    34    1
    66    12     9    1
    67    80    81    1
    68    80    83    1
    69    80    79    1
    70   105   104    2
    71    81    82    2
    72     9     8    1
    73   110   108   am
    74   108   107    1
    75    88    86   ar
    76   106   107    1
    77   106   103    1
    78   104   103    1
    79   103   102    1
    80    28    27    2
    81    72    71    2
    82    27    26    1
    83    66    68   ar
    84    66    64   ar
    85    71    70    1
    86   125   124    1
    87    68    67   ar
    88    32    31    2
    89    64    63    1
    90    64    65   ar
    91    63    60    1
    92    62    61    2
    93    73    70    1
    94    73    74    1
    95    25    26    1
    96    26    29    1
    97    67    65   ar
    98    29    30    1
    99    70    69    1
   100    31    30    1
   101    31    33   am
   102   118   116   ar
   103   124   123    1
   104   124   126    1
   105   123   120    1
   106   117   116   ar
   107    60    61    1
   108    60    59    1
   109    75    74   ar
   110    75    77   ar
   111    74    76   ar
   112   116   115    1
   113   120   121    1
   114   120   119    1
   115   121   122    2
   116   119   113   am
   117    77    78   ar
   118    76    78   ar
   119   115   112    1
   120   113   112    1
   121   113   114    2
   122   112   111    1
   123   100    99    1
   124    97    98    1
   125    97    96    1
   126    94    93    2
   127    99    98    2
   128    99   101    1
   129    95    96    1
   130    95    92    1
   131    93    92    1
   132    91    92    1
