@<TRIPOS>MOLECULE
tmp/1gvqA01.pdb
 108 104 0 0 0
SMALL
GASTEIGER

@<TRIPOS>ATOM
      1  N         25.3400    5.7950   19.9600 N.3    24  THR24      -0.1218
      2  CA        25.2020    5.6740   18.5160 C.3    24  THR24       0.1862
      3  C         26.5050    6.1860   17.8970 C.2    24  THR24       0.2287
      4  O         26.9110    7.3130   18.1550 O.2    24  THR24      -0.2866
      5  CB        24.0140    6.5240   18.0240 C.3    24  THR24       0.1770
      6  OG1       22.7930    5.8910   18.4150 O.3    24  THR24      -0.2211
      7  CG2       24.0460    6.6870   16.5040 C.3    24  THR24       0.0375
      8  N         22.1450    2.2800   20.1330 N.3    56  ALA56      -0.1245
      9  CA        20.7470    1.9960   19.7990 C.3    56  ALA56       0.1562
     10  C         20.7250    1.0900   18.5620 C.2    56  ALA56       0.2260
     11  O         21.4150    1.3580   17.5740 O.2    56  ALA56      -0.2867
     12  CB        19.9960    3.3070   19.5260 C.3    56  ALA56       0.0290
     13  N         18.6450    6.3240   11.2310 N.3    66  TYR66      -0.1241
     14  CA        19.9970    6.8140   10.9690 C.3    66  TYR66       0.1605
     15  C         20.7930    5.8700   10.0800 C.2    66  TYR66       0.2264
     16  O         20.7480    4.6480   10.2440 O.2    66  TYR66      -0.2867
     17  CB        20.7870    6.9820   12.2690 C.3    66  TYR66       0.0534
     18  CG        20.2440    7.9940   13.2470 C.ar   66  TYR66      -0.0201
     19  CD1       19.0510    7.7660   13.9270 C.ar   66  TYR66      -0.0009
     20  CD2       20.9480    9.1630   13.5220 C.ar   66  TYR66      -0.0009
     21  CE1       18.5730    8.6770   14.8620 C.ar   66  TYR66       0.0417
     22  CE2       20.4800   10.0840   14.4540 C.ar   66  TYR66       0.0417
     23  CZ        19.2930    9.8330   15.1190 C.ar   66  TYR66       0.1957
     24  OH        18.8190   10.7390   16.0310 O.3    66  TYR66      -0.2866
     25  N         20.6480   -2.0770   23.3210 N.3    98  GLN98      -0.1245
     26  CA        19.5780   -1.0930   23.4200 C.3    98  GLN98       0.1566
     27  C         18.7820   -1.2070   22.1280 C.2    98  GLN98       0.2260
     28  O         19.3350   -1.0650   21.0290 O.2    98  GLN98      -0.2867
     29  CB        20.1070    0.3430   23.5750 C.3    98  GLN98       0.0367
     30  CG        18.9780    1.3710   23.7770 C.3    98  GLN98       0.0905
     31  CD        19.4520    2.8240   23.7400 C.2    98  GLN98       0.2608
     32  OE1       19.9360    3.3030   22.7150 O.2    98  GLN98      -0.2717
     33  NE2       19.3070    3.5300   24.8630 N.am   98  GLN98      -0.0878
     34  N         15.5900    0.0820   19.7090 N.3   100  TRP100     -0.1241
     35  CA        14.7370    1.2320   19.4330 C.3   100  TRP100      0.1605
     36  C         14.0020    1.1860   18.1050 C.2   100  TRP100      0.2264
     37  O         14.2650    0.3410   17.2420 O.2   100  TRP100     -0.2867
     38  CB        15.5620    2.5310   19.4560 C.3   100  TRP100      0.0550
     39  CG        16.5220    2.7110   18.2800 C.ar  100  TRP100      0.0003
     40  CD1       16.8910    1.7660   17.3590 C.ar  100  TRP100      0.0946
     41  CD2       17.2940    3.8840   17.9720 C.ar  100  TRP100      0.0152
     42  NE1       17.8460    2.2750   16.5080 N.ar  100  TRP100     -0.2442
     43  CE2       18.1130    3.5710   16.8630 C.ar  100  TRP100      0.0810
     44  CE3       17.3770    5.1670   18.5330 C.ar  100  TRP100      0.0012
     45  CZ2       19.0090    4.4940   16.3040 C.ar  100  TRP100      0.0191
     46  CZ3       18.2680    6.0840   17.9810 C.ar  100  TRP100      0.0001
     47  CH2       19.0730    5.7400   16.8760 C.ar  100  TRP100      0.0015
     48  N         14.4410    1.4160   24.4330 N.3   179  HIS179     -0.1241
     49  CA        14.6950    2.8510   24.3010 C.3   179  HIS179      0.1621
     50  C         13.3860    3.6460   24.3020 C.2   179  HIS179      0.2264
     51  O         12.7920    3.8620   23.2540 O.2   179  HIS179     -0.2867
     52  CB        15.4630    3.1290   22.9970 C.3   179  HIS179      0.0745
     53  CG        16.1850    4.4420   22.9750 C.ar  179  HIS179      0.0817
     54  ND1       15.8400    5.5010   23.7870 N.ar  179  HIS179     -0.2268
     55  CD2       17.2160    4.8770   22.2100 C.ar  179  HIS179      0.1154
     56  CE1       16.6240    6.5320   23.5240 C.ar  179  HIS179      0.1986
     57  NE2       17.4690    6.1790   22.5700 N.ar  179  HIS179     -0.2212
     58  N         14.6030   10.0450   24.7580 N.3   182  HIS182     -0.1241
     59  CA        15.0860   10.9570   23.7260 C.3   182  HIS182      0.1621
     60  C         14.2280   11.2250   22.4920 C.2   182  HIS182      0.2264
     61  O         14.7570   11.4510   21.4000 O.2   182  HIS182     -0.2867
     62  CB        16.4850   10.4890   23.3060 C.3   182  HIS182      0.0745
     63  CG        17.4390   10.3700   24.4570 C.ar  182  HIS182      0.0817
     64  ND1       18.6500    9.7210   24.3620 N.ar  182  HIS182     -0.2268
     65  CD2       17.3600   10.8370   25.7270 C.ar  182  HIS182      0.1154
     66  CE1       19.2780    9.7930   25.5240 C.ar  182  HIS182      0.1986
     67  NE2       18.5160   10.4650   26.3690 N.ar  182  HIS182     -0.2212
     68  N         12.1970    9.2140   20.7210 N.3   184  TYR184     -0.1241
     69  CA        12.0580    8.1800   19.7010 C.3   184  TYR184      0.1605
     70  C         10.6420    7.6170   19.7880 C.2   184  TYR184      0.2264
     71  O          9.8400    8.1330   20.5630 O.2   184  TYR184     -0.2867
     72  CB        13.1710    7.1260   19.8550 C.3   184  TYR184      0.0534
     73  CG        14.5100    7.7300   19.4530 C.ar  184  TYR184     -0.0201
     74  CD1       14.7060    8.2220   18.1610 C.ar  184  TYR184     -0.0009
     75  CD2       15.5250    7.9360   20.3910 C.ar  184  TYR184     -0.0009
     76  CE1       15.8640    8.9190   17.8140 C.ar  184  TYR184      0.0417
     77  CE2       16.6960    8.6360   20.0490 C.ar  184  TYR184      0.0417
     78  CZ        16.8520    9.1260   18.7650 C.ar  184  TYR184      0.1957
     79  OH        17.9760    9.8510   18.4330 O.3   184  TYR184     -0.2866
     80  N         15.4680   16.3380   22.2880 N.3   239  GLN239     -0.1245
     81  CA        15.2870   16.3400   20.8390 C.3   239  GLN239      0.1566
     82  C         13.9390   16.8980   20.4030 C.2   239  GLN239      0.2260
     83  O         13.2260   16.2770   19.6120 O.2   239  GLN239     -0.2867
     84  CB        15.4480   14.9280   20.2750 C.3   239  GLN239      0.0367
     85  CG        16.8060   14.3060   20.5090 C.3   239  GLN239      0.0905
     86  CD        17.1560   13.3020   19.4290 C.2   239  GLN239      0.2608
     87  OE1       17.4440   13.6760   18.2880 O.2   239  GLN239     -0.2717
     88  NE2       17.1210   12.0200   19.7750 N.am  239  GLN239     -0.0878
     89  N         21.8730   16.4400   25.9250 N.3   273  LEU273     -0.1245
     90  CA        23.2700   16.8380   25.7930 C.3   273  LEU273      0.1561
     91  C         23.3630   18.3610   25.8770 C.2   273  LEU273      0.2260
     92  O         24.3840   18.9080   26.2910 O.2   273  LEU273     -0.2867
     93  CB        23.8460   16.3760   24.4520 C.3   273  LEU273      0.0270
     94  CG        24.0390   14.8810   24.1900 C.3   273  LEU273      0.0019
     95  CD1       24.5260   14.6880   22.7580 C.3   273  LEU273      0.0001
     96  CD2       25.0430   14.2990   25.1790 C.3   273  LEU273      0.0001
     97  N         30.3870   10.3990   15.3140 N.3   349  TYR349     -0.1241
     98  CA        29.4910    9.7680   14.3440 C.3   349  TYR349      0.1605
     99  C         30.1210    9.4470   12.9870 C.2   349  TYR349      0.2264
    100  O         30.6980   10.3160   12.3300 O.2   349  TYR349     -0.2867
    101  CB        28.2730   10.6710   14.1140 C.3   349  TYR349      0.0534
    102  CG        27.4790   10.9860   15.3640 C.ar  349  TYR349     -0.0201
    103  CD1       26.6400   10.0310   15.9440 C.ar  349  TYR349     -0.0009
    104  CD2       27.5510   12.2510   15.9580 C.ar  349  TYR349     -0.0009
    105  CE1       25.8830   10.3280   17.0870 C.ar  349  TYR349      0.0417
    106  CE2       26.8010   12.5590   17.1040 C.ar  349  TYR349      0.0417
    107  CZ        25.9700   11.5920   17.6590 C.ar  349  TYR349      0.1957
    108  OH        25.2270   11.8930   18.7850 O.3   349  TYR349     -0.2866
@<TRIPOS>BOND
     1    15    16    2
     2    15    14    1
     3    14    13    1
     4    14    17    1
     5    17    18    1
     6   100    99    2
     7    99    98    1
     8    18    20   ar
     9    18    19   ar
    10    20    22   ar
    11    19    21   ar
    12   101    98    1
    13   101   102    1
    14    98    97    1
    15    22    23   ar
    16    21    23   ar
    17    23    24    1
    18   102   103   ar
    19   102   104   ar
    20   103   105   ar
    21   104   106   ar
    22    45    43   ar
    23    45    47   ar
    24     7     5    1
    25    42    43   ar
    26    42    40   ar
    27    43    41   ar
    28    47    46   ar
    29   105   107   ar
    30   106   107   ar
    31    37    36    2
    32    40    39   ar
    33    11    10    2
    34   107   108    1
    35    76    74   ar
    36    76    78   ar
    37     3     4    2
    38     3     2    1
    39    41    39   ar
    40    41    44   ar
    41    46    44   ar
    42     5     6    1
    43     5     2    1
    44    36    35    1
    45    74    73   ar
    46    39    38    1
    47    87    86    2
    48    79    78    1
    49     2     1    1
    50    10     9    1
    51    78    77   ar
    52    86    88   am
    53    86    85    1
    54    35    38    1
    55    35    34    1
    56    73    72    1
    57    73    75   ar
    58    12     9    1
    59    83    82    2
    60    69    70    1
    61    69    72    1
    62    69    68    1
    63    70    71    2
    64     9     8    1
    65    77    75   ar
    66    84    85    1
    67    84    81    1
    68    82    81    1
    69    81    80    1
    70    28    27    2
    71    61    60    2
    72    27    26    1
    73    55    57   ar
    74    55    53   ar
    75    60    59    1
    76    57    56   ar
    77    32    31    2
    78    95    94    1
    79    53    52    1
    80    53    54   ar
    81    52    49    1
    82    51    50    2
    83    62    59    1
    84    62    63    1
    85    25    26    1
    86    26    29    1
    87    56    54   ar
    88    29    30    1
    89    59    58    1
    90    31    30    1
    91    31    33   am
    92    94    93    1
    93    94    96    1
    94    49    50    1
    95    49    48    1
    96    64    63   ar
    97    64    66   ar
    98    93    90    1
    99    63    65   ar
   100    66    67   ar
   101    65    67   ar
   102    90    91    1
   103    90    89    1
   104    91    92    2
