@<TRIPOS>MOLECULE
tmp/1gvrA01.pdb
 151 144 0 0 0
SMALL
GASTEIGER

@<TRIPOS>ATOM
      1  N         24.6460    3.9380   26.3150 N.3    24  PRO24      -0.2116
      2  CA        24.4030    3.5690   24.9170 C.3    24  PRO24       0.1372
      3  C         24.8810    4.7290   24.0460 C.2    24  PRO24       0.2244
      4  O         24.5160    5.8760   24.2930 O.2    24  PRO24      -0.2868
      5  CB        22.8860    3.3670   24.8650 C.3    24  PRO24       0.0268
      6  CG        22.3740    4.2540   25.9660 C.3    24  PRO24       0.0207
      7  CD        23.3830    4.0610   27.0660 C.3    24  PRO24       0.0892
      8  N         25.3450    5.8660   19.9670 N.3    26  THR26      -0.1218
      9  CA        25.2230    5.7230   18.5250 C.3    26  THR26       0.1862
     10  C         26.5310    6.2140   17.8930 C.2    26  THR26       0.2287
     11  O         26.9650    7.3280   18.1640 O.2    26  THR26      -0.2866
     12  CB        24.0500    6.5770   18.0220 C.3    26  THR26       0.1770
     13  OG1       22.8250    5.9760   18.4440 O.3    26  THR26      -0.2211
     14  CG2       24.0690    6.7180   16.5000 C.3    26  THR26       0.0375
     15  N         22.1690    2.3190   20.1310 N.3    58  ALA58      -0.1245
     16  CA        20.7820    2.0100   19.7870 C.3    58  ALA58       0.1562
     17  C         20.7570    1.1120   18.5460 C.2    58  ALA58       0.2260
     18  O         21.4210    1.3840   17.5360 O.2    58  ALA58      -0.2867
     19  CB        20.0070    3.2990   19.5350 C.3    58  ALA58       0.0290
     20  N         18.6620    6.3310   11.2030 N.3    68  TYR68      -0.1241
     21  CA        20.0240    6.8270   10.9790 C.3    68  TYR68       0.1605
     22  C         20.8380    5.8700   10.1080 C.2    68  TYR68       0.2264
     23  O         20.8610    4.6630   10.3550 O.2    68  TYR68      -0.2867
     24  CB        20.7670    6.9810   12.3100 C.3    68  TYR68       0.0534
     25  CG        20.2220    8.0280   13.2540 C.ar   68  TYR68      -0.0201
     26  CD1       20.8600    9.2610   13.4050 C.ar   68  TYR68      -0.0009
     27  CD2       19.0800    7.7810   14.0140 C.ar   68  TYR68      -0.0009
     28  CE1       20.3740   10.2180   14.2950 C.ar   68  TYR68       0.0417
     29  CE2       18.5880    8.7320   14.9020 C.ar   68  TYR68       0.0417
     30  CZ        19.2360    9.9420   15.0400 C.ar   68  TYR68       0.1957
     31  OH        18.7480   10.8710   15.9310 O.3    68  TYR68      -0.2866
     32  N         20.7500   -1.9870   23.3940 N.3   100  GLN100     -0.1245
     33  CA        19.6650   -1.0200   23.5090 C.3   100  GLN100      0.1566
     34  C         18.8680   -1.1460   22.2200 C.2   100  GLN100      0.2260
     35  O         19.4160   -1.0140   21.1240 O.2   100  GLN100     -0.2867
     36  CB        20.1720    0.4200   23.6630 C.3   100  GLN100      0.0367
     37  CG        19.0220    1.4040   23.9300 C.3   100  GLN100      0.0905
     38  CD        19.4400    2.8550   23.8490 C.2   100  GLN100      0.2608
     39  OE1       19.9710    3.3000   22.8320 O.2   100  GLN100     -0.2717
     40  NE2       19.1930    3.6050   24.9200 N.am  100  GLN100     -0.0878
     41  N         15.6690    0.0700   19.7740 N.3   102  TRP102     -0.1241
     42  CA        14.8250    1.2240   19.5040 C.3   102  TRP102      0.1605
     43  C         14.0800    1.1660   18.1890 C.2   102  TRP102      0.2264
     44  O         14.3260    0.3100   17.3400 O.2   102  TRP102     -0.2867
     45  CB        15.6660    2.5170   19.5100 C.3   102  TRP102      0.0550
     46  CG        16.6010    2.7090   18.3040 C.ar  102  TRP102      0.0003
     47  CD1       16.9930    1.7590   17.3960 C.ar  102  TRP102      0.0946
     48  CD2       17.3180    3.9050   17.9560 C.ar  102  TRP102      0.0152
     49  NE1       17.9160    2.2900   16.5150 N.ar  102  TRP102     -0.2442
     50  CE2       18.1310    3.6030   16.8400 C.ar  102  TRP102      0.0810
     51  CE3       17.3580    5.1980   18.4870 C.ar  102  TRP102      0.0012
     52  CZ2       18.9750    4.5500   16.2460 C.ar  102  TRP102      0.0191
     53  CZ3       18.1980    6.1380   17.8950 C.ar  102  TRP102      0.0001
     54  CH2       18.9940    5.8080   16.7890 C.ar  102  TRP102      0.0015
     55  N         20.8300   11.6450   10.7700 N.3   132  SER132     -0.1217
     56  CA        22.0680   11.4500   10.0330 C.3   132  SER132      0.1889
     57  C         21.9610   10.3800    8.9530 C.2   132  SER132      0.2288
     58  O         21.5470    9.2480    9.2190 O.2   132  SER132     -0.2866
     59  CB        23.2010   11.0840   10.9990 C.3   132  SER132      0.2089
     60  OG        23.4360   12.1300   11.9320 O.3   132  SER132     -0.2183
     61  N         23.9350   15.4870    7.5960 N.3   142  ARG142     -0.1245
     62  CA        22.7150   15.8250    8.3220 C.3   142  ARG142      0.1563
     63  C         21.5930   16.1510    7.3420 C.2   142  ARG142      0.2260
     64  O         21.8060   16.8450    6.3470 O.2   142  ARG142     -0.2867
     65  CB        22.9650   17.0210    9.2460 C.3   142  ARG142      0.0307
     66  CG        24.0360   16.7770   10.3020 C.3   142  ARG142      0.0489
     67  CD        23.5790   15.7700   11.3370 C.3   142  ARG142      0.2205
     68  NE        22.6470   16.3580   12.2950 N.pl3 142  ARG142     -0.0865
     69  CZ        21.8890   15.6540   13.1290 C.cat 142  ARG142      0.5346
     70  NH1       21.9460   14.3280   13.1200 N.pl3 142  ARG142      0.1354
     71  NH2       21.0810   16.2760   13.9790 N.pl3 142  ARG142      0.1354
     72  N         14.7020    1.4270   24.4690 N.3   181  HIS181     -0.1241
     73  CA        14.9260    2.8650   24.3170 C.3   181  HIS181      0.1621
     74  C         13.6110    3.6310   24.3620 C.2   181  HIS181      0.2264
     75  O         12.9840    3.8670   23.3310 O.2   181  HIS181     -0.2867
     76  CB        15.6330    3.1710   22.9930 C.3   181  HIS181      0.0745
     77  CG        16.2830    4.5210   22.9570 C.ar  181  HIS181      0.0817
     78  ND1       15.8530    5.5740   23.7360 N.ar  181  HIS181     -0.2268
     79  CD2       17.3220    4.9930   22.2280 C.ar  181  HIS181      0.1154
     80  CE1       16.5990    6.6370   23.4890 C.ar  181  HIS181      0.1986
     81  NE2       17.4980    6.3110   22.5760 N.ar  181  HIS181     -0.2212
     82  N         14.5790   10.1340   24.7530 N.3   184  HIS184     -0.1241
     83  CA        15.0770   11.0350   23.7180 C.3   184  HIS184      0.1621
     84  C         14.2180   11.2750   22.4750 C.2   184  HIS184      0.2264
     85  O         14.7430   11.5140   21.3860 O.2   184  HIS184     -0.2867
     86  CB        16.4740   10.5650   23.3080 C.3   184  HIS184      0.0745
     87  CG        17.4310   10.4560   24.4590 C.ar  184  HIS184      0.0817
     88  ND1       18.5980    9.7240   24.3930 N.ar  184  HIS184     -0.2268
     89  CD2       17.3940   10.9920   25.7020 C.ar  184  HIS184      0.1154
     90  CE1       19.2380    9.8140   25.5460 C.ar  184  HIS184      0.1986
     91  NE2       18.5290   10.5780   26.3580 N.ar  184  HIS184     -0.2212
     92  N         12.2750    9.1980   20.6900 N.3   186  TYR186     -0.1241
     93  CA        12.1130    8.1890   19.6560 C.3   186  TYR186      0.1605
     94  C         10.7150    7.5960   19.7750 C.2   186  TYR186      0.2264
     95  O          9.9270    8.0850   20.5790 O.2   186  TYR186     -0.2867
     96  CB        13.2490    7.1710   19.7240 C.3   186  TYR186      0.0534
     97  CG        14.5360    7.8690   19.3540 C.ar  186  TYR186     -0.0201
     98  CD1       15.3790    8.3800   20.3340 C.ar  186  TYR186     -0.0009
     99  CD2       14.8290    8.1590   18.0200 C.ar  186  TYR186     -0.0009
    100  CE1       16.4720    9.1730   19.9970 C.ar  186  TYR186      0.0417
    101  CE2       15.9270    8.9460   17.6710 C.ar  186  TYR186      0.0417
    102  CZ        16.7450    9.4480   18.6610 C.ar  186  TYR186      0.1957
    103  OH        17.8620   10.1940   18.3330 O.3   186  TYR186     -0.2866
    104  N         15.3110    2.6090   29.3330 N.3   233  ARG233     -0.1245
    105  CA        15.8530    3.9440   29.4780 C.3   233  ARG233      0.1563
    106  C         14.7460    4.9500   29.2060 C.2   233  ARG233      0.2260
    107  O         14.0270    4.8570   28.2080 O.2   233  ARG233     -0.2867
    108  CB        17.0200    4.1950   28.5150 C.3   233  ARG233      0.0307
    109  CG        17.7590    5.4830   28.8540 C.3   233  ARG233      0.0489
    110  CD        19.0010    5.7310   28.0120 C.3   233  ARG233      0.2205
    111  NE        20.0640    6.2900   28.8460 N.pl3 233  ARG233     -0.0865
    112  CZ        21.0800    7.0240   28.4050 C.cat 233  ARG233      0.5346
    113  NH1       21.1940    7.3230   27.1170 N.pl3 233  ARG233      0.1354
    114  NH2       22.0050    7.4340   29.2610 N.pl3 233  ARG233      0.1354
    115  N         15.3760   16.3360   22.0640 N.3   241  GLN241     -0.1245
    116  CA        15.1260   16.2220   20.6290 C.3   241  GLN241      0.1566
    117  C         13.8060   16.8810   20.2430 C.2   241  GLN241      0.2260
    118  O         13.0300   16.3220   19.4650 O.2   241  GLN241     -0.2867
    119  CB        15.0850   14.7410   20.2340 C.3   241  GLN241      0.0367
    120  CG        15.4140   14.4500   18.7770 C.3   241  GLN241      0.0905
    121  CD        16.8950   14.5980   18.4770 C.2   241  GLN241      0.2608
    122  OE1       17.3560   14.2690   17.3850 O.2   241  GLN241     -0.2717
    123  NE2       17.6490   15.0970   19.4510 N.am  241  GLN241     -0.0878
    124  N         19.2440   16.3230   28.2210 N.3   274  ASP274     -0.1225
    125  CA        19.6770   16.0400   26.8600 C.3   274  ASP274      0.1805
    126  C         21.1980   16.2040   26.8220 C.2   274  ASP274      0.2597
    127  O         21.9050   15.6920   27.6910 O.2   274  ASP274     -0.2718
    128  CB        19.0020   17.0140   25.8940 C.3   274  ASP274      0.1424
    129  CG        19.0650   16.5450   24.4570 C.2   274  ASP274      0.3668
    130  OD1       18.3630   17.1390   23.6120 O.co2 274  ASP274     -0.2456
    131  OD2       19.8130   15.5840   24.1730 O.co2 274  ASP274     -0.2456
    132  N         21.7040   16.9000   25.8140 N.am  275  LEU275     -0.1979
    133  CA        23.1370   17.1460   25.7200 C.3   275  LEU275      0.1596
    134  C         23.3280   18.6300   25.9890 C.2   275  LEU275      0.2287
    135  O         24.3990   19.0750   26.4010 O.2   275  LEU275     -0.2864
    136  CB        23.6630   16.7730   24.3320 C.3   275  LEU275      0.0297
    137  CG        23.7090   15.2700   24.0360 C.3   275  LEU275      0.0022
    138  CD1       24.2160   15.0420   22.6210 C.3   275  LEU275      0.0001
    139  CD2       24.6170   14.5730   25.0410 C.3   275  LEU275      0.0001
    140  N         30.4320   10.4710   15.2000 N.3   351  TYR351     -0.1241
    141  CA        29.5640    9.8190   14.2180 C.3   351  TYR351      0.1605
    142  C         30.2100    9.4960   12.8770 C.2   351  TYR351      0.2264
    143  O         30.8660   10.3450   12.2710 O.2   351  TYR351     -0.2867
    144  CB        28.3370   10.6920   13.9510 C.3   351  TYR351      0.0534
    145  CG        27.5210   11.0000   15.1740 C.ar  351  TYR351     -0.0201
    146  CD1       26.8120    9.9970   15.8320 C.ar  351  TYR351     -0.0009
    147  CD2       27.4460   12.2980   15.6760 C.ar  351  TYR351     -0.0009
    148  CE1       26.0480   10.2800   16.9530 C.ar  351  TYR351      0.0417
    149  CE2       26.6840   12.5900   16.7990 C.ar  351  TYR351      0.0417
    150  CZ        25.9870   11.5770   17.4310 C.ar  351  TYR351      0.1957
    151  OH        25.2170   11.8600   18.5340 O.3   351  TYR351     -0.2866
@<TRIPOS>BOND
     1    64    63    2
     2    63    62    1
     3    61    62    1
     4    62    65    1
     5    57    58    2
     6    57    56    1
     7    65    66    1
     8    56    55    1
     9    56    59    1
    10    22    23    2
    11    22    21    1
    12    66    67    1
    13    21    20    1
    14    21    24    1
    15    59    60    1
    16    67    68    1
    17   143   142    2
    18    68    69    2
    19    24    25    1
    20   142   141    1
    21    70    69    1
    22    69    71    1
    23    25    26   ar
    24    25    27   ar
    25    26    28   ar
    26   144   141    1
    27   144   145    1
    28    27    29   ar
    29   141   140    1
    30    28    30   ar
    31    29    30   ar
    32    30    31    1
    33   145   147   ar
    34   145   146   ar
    35   147   149   ar
    36   146   148   ar
    37    52    54   ar
    38    52    50   ar
    39    14    12    1
    40    49    50   ar
    41    49    47   ar
    42    54    53   ar
    43   149   150   ar
    44    50    48   ar
    45   148   150   ar
    46    44    43    2
    47   122   121    2
    48    47    46   ar
    49   150   151    1
    50    18    17    2
    51   101    99   ar
    52   101   102   ar
    53    10    11    2
    54    10     9    1
    55    53    51   ar
    56    48    46   ar
    57    48    51   ar
    58    99    97   ar
    59    12    13    1
    60    12     9    1
    61    43    42    1
    62    46    45    1
    63   103   102    1
    64   121   120    1
    65   121   123   am
    66     9     8    1
    67    17    16    1
    68   102   100   ar
    69   120   119    1
    70    97    96    1
    71    97    98   ar
    72   118   117    2
    73    42    45    1
    74    42    41    1
    75    19    16    1
    76    93    96    1
    77    93    94    1
    78    93    92    1
    79    94    95    2
    80    16    15    1
    81   100    98   ar
    82   119   116    1
    83   117   116    1
    84   116   115    1
    85    35    34    2
    86    85    84    2
    87    34    33    1
    88    79    81   ar
    89    79    77   ar
    90    84    83    1
    91    81    80   ar
    92   138   137    1
    93    39    38    2
    94    77    76    1
    95    77    78   ar
    96    76    73    1
    97    86    83    1
    98    86    87    1
    99    75    74    2
   100    32    33    1
   101    80    78   ar
   102    33    36    1
   103   130   129   ar
   104    36    37    1
   105    83    82    1
   106    38    37    1
   107    38    40   am
   108   137   136    1
   109   137   139    1
   110     3     4    2
   111     3     2    1
   112   131   129   ar
   113    73    74    1
   114    73    72    1
   115   136   133    1
   116    88    87   ar
   117    88    90   ar
   118   129   128    1
   119    87    89   ar
   120     5     2    1
   121     5     6    1
   122     2     1    1
   123    90    91   ar
   124    89    91   ar
   125   133   132    1
   126   133   134    1
   127   132   126   am
   128   128   125    1
   129     6     7    1
   130   134   135    2
   131     1     7    1
   132   126   125    1
   133   126   127    2
   134   125   124    1
   135   113   112    1
   136   110   111    1
   137   110   109    1
   138   107   106    2
   139   112   111    2
   140   112   114    1
   141   108   109    1
   142   108   105    1
   143   106   105    1
   144   104   105    1
