@<TRIPOS>MOLECULE
tmp/1gvtA00.pdb
 223 208 0 0 0
SMALL
GASTEIGER

@<TRIPOS>ATOM
      1  N         13.4630  261.1870   18.9610 N.3    10  ILE10      -0.1245
      2  CA        13.8200  261.6710   20.2970 C.3    10  ILE10       0.1561
      3  C         13.4740  260.6830   21.3960 C.2    10  ILE10       0.2260
      4  O         14.0110  260.8150   22.5090 O.2    10  ILE10      -0.2867
      5  CB        13.1230  263.0140   20.6170 C.3    10  ILE10       0.0252
      6  CG1       11.5800  262.8910   20.7020 C.3    10  ILE10       0.0019
      7  CG2       13.5640  264.1280   19.6620 C.3    10  ILE10       0.0019
      8  CD1       10.9390  264.1090   21.3700 C.3    10  ILE10       0.0001
      9  N          8.1390  260.4230   18.5930 N.3    15  ASP15      -0.1225
     10  CA         7.3600  261.6590   18.7350 C.3    15  ASP15       0.1805
     11  C          7.8540  262.7680   17.8150 C.2    15  ASP15       0.2597
     12  O          7.0920  263.5830   17.3640 O.2    15  ASP15      -0.2718
     13  CB         7.4470  262.1390   20.1960 C.3    15  ASP15       0.1424
     14  CG         6.3540  261.6100   21.0850 C.2    15  ASP15       0.3668
     15  OD1        5.1800  261.7130   20.7180 O.co2  15  ASP15      -0.2456
     16  OD2        6.6880  261.0910   22.1890 O.co2  15  ASP15      -0.2456
     17  N          9.1690  262.7880   17.6190 N.am   16  ALA16      -0.1979
     18  CA         9.8480  263.8550   16.8510 C.3    16  ALA16       0.1597
     19  C         11.2050  263.3170   16.5120 C.2    16  ALA16       0.2287
     20  O         11.6710  262.3300   17.0830 O.2    16  ALA16      -0.2864
     21  CB         9.9360  265.1540   17.6520 C.3    16  ALA16       0.0319
     22  N         14.9900  270.1580   15.7460 N.3    33  ASP33      -0.1239
     23  CA        13.8700  269.4940   15.0670 C.3    33  ASP33       0.1674
     24  C         13.6670  270.1760   13.7090 C.2    33  ASP33       0.2266
     25  O         13.2880  271.3470   13.6480 O.2    33  ASP33      -0.2867
     26  CB        12.6320  269.5570   15.9470 C.3    33  ASP33       0.1410
     27  CG        11.4760  268.7450   15.4510 C.2    33  ASP33       0.3668
     28  OD1       11.3500  268.4900   14.2620 O.co2  33  ASP33      -0.2456
     29  OD2       10.6600  268.3920   16.3710 O.co2  33  ASP33      -0.2456
     30  N         11.7260  271.0630   10.7370 N.3    35  ASP35      -0.1239
     31  CA        10.2650  271.2190   10.7160 C.3    35  ASP35       0.1674
     32  C          9.8210  271.8300    9.3860 C.2    35  ASP35       0.2266
     33  O          9.9360  273.0380    9.1890 O.2    35  ASP35      -0.2867
     34  CB         9.8680  272.1380   11.8780 C.3    35  ASP35       0.1410
     35  CG         8.3840  272.4400   11.9040 C.2    35  ASP35       0.3668
     36  OD1        7.6340  271.5400   11.3870 O.co2  35  ASP35      -0.2456
     37  OD2        7.9720  273.4450   12.4800 O.co2  35  ASP35      -0.2456
     38  N          6.9290  272.3700    8.6100 N.3    37  GLY37      -0.1225
     39  CA         5.7380  273.1510    8.9010 C.3    37  GLY37       0.1811
     40  C          5.9810  274.5540    9.4710 C.2    37  GLY37       0.2280
     41  O          5.0490  275.2150    9.8790 O.2    37  GLY37      -0.2866
     42  N          3.1570  277.4450   17.6050 N.3    77  TYR77      -0.1227
     43  CA         3.0280  276.2600   16.7760 C.3    77  TYR77       0.1736
     44  C          1.6270  275.6850   16.8950 C.2    77  TYR77       0.2596
     45  O          0.8100  276.0540   17.7570 O.2    77  TYR77      -0.2718
     46  CB         4.0800  275.2170   17.1950 C.3    77  TYR77       0.0548
     47  CG         5.4550  275.7390   16.8740 C.ar   77  TYR77      -0.0200
     48  CD1        5.9320  275.7930   15.5680 C.ar   77  TYR77      -0.0009
     49  CD2        6.2770  276.2330   17.8940 C.ar   77  TYR77      -0.0009
     50  CE1        7.2020  276.2840   15.2550 C.ar   77  TYR77       0.0417
     51  CE2        7.5230  276.7240   17.6030 C.ar   77  TYR77       0.0417
     52  CZ         7.9960  276.7590   16.3020 C.ar   77  TYR77       0.1957
     53  OH         9.2480  277.2730   16.0620 O.3    77  TYR77      -0.2866
     54  N          1.3080  274.7010   16.0480 N.am   78  GLY78      -0.1942
     55  CA        -0.0410  274.1160   16.0480 C.3    78  GLY78       0.2014
     56  C         -0.3940  273.4890   17.3660 C.2    78  GLY78       0.2638
     57  O         -1.5920  273.4310   17.6550 O.2    78  GLY78      -0.2714
     58  N          0.5490  272.9650   18.1120 N.am   79  ASP79      -0.1971
     59  CA         0.3290  272.3410   19.3960 C.3    79  ASP79       0.1709
     60  C          0.3270  273.3500   20.5570 C.2    79  ASP79       0.2293
     61  O          0.2330  272.9130   21.7190 O.2    79  ASP79      -0.2864
     62  CB         1.3050  271.1770   19.6420 C.3    79  ASP79       0.1436
     63  CG         2.7530  271.6000   19.7220 C.2    79  ASP79       0.3671
     64  OD1        2.9970  272.8250   19.9880 O.co2  79  ASP79      -0.2456
     65  OD2        3.6040  270.7010   19.5240 O.co2  79  ASP79      -0.2456
     66  N          2.6730  275.4480   21.5390 N.3    81  SER81      -0.1217
     67  CA         3.9670  275.8420   22.0890 C.3    81  SER81       0.1889
     68  C          4.4440  277.1180   21.4250 C.2    81  SER81       0.2288
     69  O          3.9540  277.5420   20.3800 O.2    81  SER81      -0.2866
     70  CB         4.9240  274.6650   21.9470 C.3    81  SER81       0.2089
     71  OG         5.2150  274.3830   20.6030 O.3    81  SER81      -0.2183
     72  N          6.4040  273.3710   27.2600 N.3   113  SER113     -0.1202
     73  CA         6.7170  272.0920   26.6020 C.3   113  SER113      0.2020
     74  C          8.1450  272.0520   26.0750 C.2   113  SER113      0.2618
     75  O          8.7610  270.9940   26.0240 O.2   113  SER113     -0.2717
     76  CB         5.7200  271.7710   25.4770 C.3   113  SER113      0.2103
     77  OG         5.7970  272.7340   24.4480 O.3   113  SER113     -0.2182
     78  N          8.6790  273.2030   25.6570 N.am  114  PHE114     -0.1975
     79  CA        10.0880  273.2540   25.2500 C.3   114  PHE114      0.1639
     80  C         10.9850  272.9650   26.4570 C.2   114  PHE114      0.2290
     81  O         11.8600  272.1150   26.3770 O.2   114  PHE114     -0.2864
     82  CB        10.4000  274.5880   24.5860 C.3   114  PHE114      0.0560
     83  CG         9.8580  274.6710   23.1850 C.ar  114  PHE114     -0.0200
     84  CD1       10.4150  273.8310   22.2030 C.ar  114  PHE114     -0.0042
     85  CD2        8.8230  275.5350   22.8300 C.ar  114  PHE114     -0.0042
     86  CE1        9.9010  273.8190   20.8960 C.ar  114  PHE114     -0.0003
     87  CE2        8.3140  275.4930   21.5360 C.ar  114  PHE114     -0.0003
     88  CZ         8.8240  274.6290   20.5920 C.ar  114  PHE114     -0.0000
     89  N         11.1650  269.2410   27.4080 N.3   117  ASP117     -0.1239
     90  CA        11.6650  268.2910   26.4370 C.3   117  ASP117      0.1674
     91  C         13.1720  268.4760   26.3170 C.2   117  ASP117      0.2266
     92  O         13.6270  269.3470   25.5550 O.2   117  ASP117     -0.2867
     93  CB        10.9710  268.5470   25.1050 C.3   117  ASP117      0.1410
     94  CG        11.4610  267.5090   24.1230 C.2   117  ASP117      0.3668
     95  OD1       12.2050  266.5330   24.4160 O.co2 117  ASP117     -0.2456
     96  OD2       11.0430  267.7260   22.9300 O.co2 117  ASP117     -0.2456
     97  N         15.2250  268.4000   22.5730 N.3   120  ILE120     -0.1245
     98  CA        15.0660  269.3610   21.4720 C.3   120  ILE120      0.1561
     99  C         15.6840  270.6940   21.8950 C.2   120  ILE120      0.2260
    100  O         15.2000  271.3360   22.8030 O.2   120  ILE120     -0.2867
    101  CB        13.5960  269.4500   21.0490 C.3   120  ILE120      0.0252
    102  CG1       13.1150  268.1560   20.3890 C.3   120  ILE120      0.0019
    103  CG2       13.4000  270.6320   20.1050 C.3   120  ILE120      0.0019
    104  CD1       11.5890  268.1010   20.2160 C.3   120  ILE120      0.0001
    105  N         14.5900  274.5540   16.7660 N.3   123  LEU123     -0.1245
    106  CA        13.9420  274.1810   15.5110 C.3   123  LEU123      0.1561
    107  C         14.7690  274.6630   14.3430 C.2   123  LEU123      0.2260
    108  O         15.3830  275.7380   14.4130 O.2   123  LEU123     -0.2867
    109  CB        12.5290  274.7660   15.3880 C.3   123  LEU123      0.0270
    110  CG        11.4590  273.7070   15.7920 C.3   123  LEU123      0.0019
    111  CD1       11.5170  273.5640   17.3160 C.3   123  LEU123      0.0001
    112  CD2       10.0640  274.1220   15.3730 C.3   123  LEU123      0.0001
    113  N          3.2590  276.6460    3.1170 N.3   192  PHE192     -0.1241
    114  CA         3.6020  275.2640    3.4360 C.3   192  PHE192      0.1605
    115  C          3.9320  274.4700    2.1690 C.2   192  PHE192      0.2264
    116  O          3.6760  274.8990    1.0350 O.2   192  PHE192     -0.2867
    117  CB         2.3700  274.5920    4.0920 C.3   192  PHE192      0.0534
    118  CG         1.9320  275.1700    5.3980 C.ar  192  PHE192     -0.0203
    119  CD1        2.8050  275.2350    6.4540 C.ar  192  PHE192     -0.0042
    120  CD2        0.6240  275.5810    5.5560 C.ar  192  PHE192     -0.0042
    121  CE1        2.3780  275.7460    7.6840 C.ar  192  PHE192     -0.0003
    122  CE2        0.1820  276.0920    6.7700 C.ar  192  PHE192     -0.0003
    123  CZ         1.0550  276.1610    7.8440 C.ar  192  PHE192     -0.0000
    124  N         -0.6160  269.1320    4.0670 N.3   215  ILE215     -0.1245
    125  CA         0.7730  269.5860    4.0640 C.3   215  ILE215      0.1561
    126  C          1.6880  268.4510    4.4800 C.2   215  ILE215      0.2260
    127  O          1.3580  267.5790    5.2830 O.2   215  ILE215     -0.2867
    128  CB         0.9760  270.8250    4.9610 C.3   215  ILE215      0.0252
    129  CG1        0.8110  270.5190    6.4600 C.3   215  ILE215      0.0019
    130  CG2        0.0450  271.9440    4.5470 C.3   215  ILE215      0.0019
    131  CD1        1.2680  271.6440    7.3690 C.3   215  ILE215      0.0001
    132  N          4.5190  267.6530    6.7210 N.3   217  ASP217     -0.1239
    133  CA         5.0550  268.2870    7.9110 C.3   217  ASP217      0.1674
    134  C          5.8870  267.3450    8.7410 C.2   217  ASP217      0.2266
    135  O          5.3470  266.5770    9.5510 O.2   217  ASP217     -0.2867
    136  CB         3.9280  268.8910    8.7700 C.3   217  ASP217      0.1410
    137  CG         4.4840  269.7720    9.8460 C.2   217  ASP217      0.3668
    138  OD1        5.7130  269.8730   10.0280 O.co2 217  ASP217     -0.2456
    139  OD2        3.6250  270.4060   10.5540 O.co2 217  ASP217     -0.2456
    140  N          7.5710  268.0820   11.2340 N.3   219  GLY219     -0.1210
    141  CA         7.4430  268.4910   12.6370 C.3   219  GLY219      0.1956
    142  C          6.1380  268.1170   13.3040 C.2   219  GLY219      0.2613
    143  O          5.9130  268.5310   14.4350 O.2   219  GLY219     -0.2717
    144  N          5.3080  267.3130   12.6450 N.am  220  THR220     -0.1938
    145  CA         4.0880  266.7850   13.2650 C.3   220  THR220      0.2028
    146  C          4.2480  265.2670   13.4050 C.2   220  THR220      0.2643
    147  O          4.6610  264.6140   12.4670 O.2   220  THR220     -0.2714
    148  CB         2.8550  267.1540   12.4360 C.3   220  THR220      0.1808
    149  OG1        2.5910  268.5700   12.5890 O.3   220  THR220     -0.2208
    150  CG2        1.5860  266.4330   12.8810 C.3   220  THR220      0.0379
    151  N          3.8460  264.7480   14.5520 N.am  221  THR221     -0.1936
    152  CA         4.0660  263.3320   14.8150 C.3   221  THR221      0.2028
    153  C          3.1710  262.4400   13.9780 C.2   221  THR221      0.2642
    154  O          3.6200  261.4290   13.4160 O.2   221  THR221     -0.2714
    155  CB         3.7720  263.0250   16.3220 C.3   221  THR221      0.1808
    156  OG1        4.4720  263.9590   17.1210 O.3   221  THR221     -0.2208
    157  CG2        4.1800  261.6040   16.6830 C.3   221  THR221      0.0379
    158  N          1.8550  262.7610   13.9460 N.am  222  LEU222     -0.1977
    159  CA         0.8480  261.8520   13.4360 C.3   222  LEU222      0.1596
    160  C          0.3610  262.2590   12.0300 C.2   222  LEU222      0.2287
    161  O          0.7790  263.2550   11.4570 O.2   222  LEU222     -0.2864
    162  CB        -0.3450  261.7540   14.4170 C.3   222  LEU222      0.0297
    163  CG         0.0460  261.4130   15.8590 C.3   222  LEU222      0.0022
    164  CD1       -1.1930  261.3260   16.7300 C.3   222  LEU222      0.0001
    165  CD2        0.8390  260.1220   15.9480 C.3   222  LEU222      0.0001
    166  N         -2.8900  263.3490   10.1960 N.3   224  TYR224     -0.1241
    167  CA        -4.2070  263.9530   10.4680 C.3   224  TYR224      0.1605
    168  C         -4.9340  264.1090    9.1330 C.2   224  TYR224      0.2264
    169  O         -4.4660  264.8020    8.2300 O.2   224  TYR224     -0.2867
    170  CB        -4.0240  265.3090   11.1220 C.3   224  TYR224      0.0534
    171  CG        -3.4710  265.2290   12.5290 C.ar  224  TYR224     -0.0201
    172  CD1       -4.2760  264.9730   13.6320 C.ar  224  TYR224     -0.0009
    173  CD2       -2.1290  265.3880   12.7590 C.ar  224  TYR224     -0.0009
    174  CE1       -3.7780  264.8990   14.9170 C.ar  224  TYR224      0.0417
    175  CE2       -1.5990  265.3220   14.0460 C.ar  224  TYR224      0.0417
    176  CZ        -2.4410  265.0710   15.1260 C.ar  224  TYR224      0.1957
    177  OH        -1.8610  265.0010   16.3830 O.3   224  TYR224     -0.2866
    178  N          0.7220  254.0530   17.3360 N.3   278  PHE278     -0.1241
    179  CA         1.6400  255.0450   17.9490 C.3   278  PHE278      0.1605
    180  C          2.2160  254.5770   19.2460 C.2   278  PHE278      0.2264
    181  O          3.4170  254.8070   19.4620 O.2   278  PHE278     -0.2867
    182  CB         0.9140  256.3780   18.0690 C.3   278  PHE278      0.0534
    183  CG         1.8330  257.4000   18.6440 C.ar  278  PHE278     -0.0203
    184  CD1        2.9350  257.8580   17.9220 C.ar  278  PHE278     -0.0042
    185  CD2        1.5720  257.8690   19.9270 C.ar  278  PHE278     -0.0042
    186  CE1        3.8000  258.7800   18.4750 C.ar  278  PHE278     -0.0003
    187  CE2        2.4420  258.8260   20.4720 C.ar  278  PHE278     -0.0003
    188  CZ         3.5350  259.2570   19.7480 C.ar  278  PHE278     -0.0000
    189  N         -2.6690  254.4030   21.3520 N.3   289  PHE289     -0.1241
    190  CA        -3.1610  255.5650   20.6380 C.3   289  PHE289      0.1605
    191  C         -2.9200  255.3810   19.1570 C.2   289  PHE289      0.2264
    192  O         -1.8730  254.9670   18.7010 O.2   289  PHE289     -0.2867
    193  CB        -2.4330  256.8260   21.1380 C.3   289  PHE289      0.0534
    194  CG        -3.1100  258.1170   20.7640 C.ar  289  PHE289     -0.0203
    195  CD1       -4.3650  258.4210   21.2780 C.ar  289  PHE289     -0.0042
    196  CD2       -2.5280  259.0700   19.9170 C.ar  289  PHE289     -0.0042
    197  CE1       -4.9830  259.6210   20.9590 C.ar  289  PHE289     -0.0003
    198  CE2       -3.1510  260.2470   19.6080 C.ar  289  PHE289     -0.0003
    199  CZ        -4.3940  260.5630   20.1430 C.ar  289  PHE289     -0.0000
    200  N         -7.7860  270.6790   13.9640 N.3   298  ILE298     -0.1245
    201  CA        -6.6820  271.4890   13.4950 C.3   298  ILE298      0.1561
    202  C         -7.0400  272.3480   12.2950 C.2   298  ILE298      0.2260
    203  O         -6.5530  273.4310   12.0610 O.2   298  ILE298     -0.2867
    204  CB        -5.5160  270.6230   13.0060 C.3   298  ILE298      0.0252
    205  CG1       -4.9740  269.6390   14.0270 C.3   298  ILE298      0.0019
    206  CG2       -4.3570  271.4840   12.5330 C.3   298  ILE298      0.0019
    207  CD1       -4.0700  268.6110   13.3810 C.3   298  ILE298      0.0001
    208  N         -6.4990  271.6270    9.1330 N.3   300  ILE300     -0.1245
    209  CA        -5.5900  271.3540    8.0370 C.3   300  ILE300      0.1561
    210  C         -5.3040  269.8690    8.0850 C.2   300  ILE300      0.2260
    211  O         -5.0720  269.2910    9.1610 O.2   300  ILE300     -0.2867
    212  CB        -4.3060  272.1820    8.0720 C.3   300  ILE300      0.0252
    213  CG1       -3.3730  271.9600    6.8930 C.3   300  ILE300      0.0019
    214  CG2       -3.5670  271.9710    9.3730 C.3   300  ILE300      0.0019
    215  CD1       -2.2100  272.8970    6.7630 C.3   300  ILE300      0.0001
    216  N         -2.6660  266.9710    7.6720 N.3   302  ILE302     -0.1245
    217  CA        -1.2380  266.9830    7.9040 C.3   302  ILE302      0.1561
    218  C         -0.6570  265.5980    7.6800 C.2   302  ILE302      0.2260
    219  O         -0.9560  264.6450    8.4430 O.2   302  ILE302     -0.2867
    220  CB        -0.8430  267.4830    9.3110 C.3   302  ILE302      0.0252
    221  CG1       -1.4870  268.8240    9.6100 C.3   302  ILE302      0.0019
    222  CG2        0.6750  267.5480    9.4100 C.3   302  ILE302      0.0019
    223  CD1       -1.2920  269.2440   11.0570 C.3   302  ILE302      0.0001
@<TRIPOS>BOND
     1   116   115    2
     2   115   114    1
     3   113   114    1
     4   114   117    1
     5   125   124    1
     6   125   126    1
     7   125   128    1
     8   117   118    1
     9   126   127    2
    10   130   128    1
    11   128   129    1
    12   118   120   ar
    13   118   119   ar
    14   120   122   ar
    15   119   121   ar
    16   129   131    1
    17   132   133    1
    18   215   213    1
    19   122   123   ar
    20   213   212    1
    21   216   217    1
    22   218   217    1
    23   218   219    2
    24   121   123   ar
    25   217   220    1
    26   133   134    1
    27   133   136    1
    28   209   212    1
    29   209   210    1
    30   209   208    1
    31   212   214    1
    32   210   211    2
    33   169   168    2
    34    38    39    1
    35   134   135    2
    36   136   137    1
    37    39    40    1
    38   168   167    1
    39    33    32    2
    40   220   222    1
    41   220   221    1
    42    32    31    1
    43    40    41    2
    44   221   223    1
    45   137   138   ar
    46   137   139   ar
    47   166   167    1
    48   167   170    1
    49    31    30    1
    50    31    34    1
    51   170   171    1
    52   140   141    1
    53    36    35   ar
    54   161   160    2
    55    34    35    1
    56    35    37   ar
    57   160   159    1
    58   203   202    2
    59   202   201    1
    60   148   149    1
    61   148   150    1
    62   148   145    1
    63   147   146    2
    64   171   173   ar
    65   171   172   ar
    66   206   204    1
    67   141   142    1
    68   144   145    1
    69   144   142   am
    70   173   175   ar
    71   204   201    1
    72   204   205    1
    73   145   146    1
    74   142   143    2
    75   207   205    1
    76   146   151   am
    77   154   153    2
    78   159   158    1
    79   159   162    1
    80   201   200    1
    81   172   174   ar
    82    25    24    2
    83    24    23    1
    84   158   153   am
    85   153   152    1
    86   175   176   ar
    87    28    27   ar
    88   107   108    2
    89   107   106    1
    90   162   163    1
    91   151   152    1
    92   152   155    1
    93   174   176   ar
    94    23    22    1
    95    23    26    1
    96   176   177    1
    97    50    48   ar
    98    50    52   ar
    99   112   110    1
   100   109   106    1
   101   109   110    1
   102    27    26    1
   103    27    29   ar
   104   106   105    1
   105    48    47   ar
   106   110   111    1
   107   163   165    1
   108   163   164    1
   109    54    55    1
   110    54    44   am
   111    55    56    1
   112    53    52    1
   113    52    51   ar
   114   155   157    1
   115   155   156    1
   116    19    18    1
   117    19    20    2
   118    43    44    1
   119    43    46    1
   120    43    42    1
   121    18    17    1
   122    18    21    1
   123    47    46    1
   124    47    49   ar
   125    44    45    2
   126   178   179    1
   127    12    11    2
   128    56    57    2
   129    56    58   am
   130    51    49   ar
   131    17    11   am
   132    11    10    1
   133   184   186   ar
   134   184   183   ar
   135   179   182    1
   136   179   180    1
   137   182   183    1
   138    58    59    1
   139   186   188   ar
   140     9    10    1
   141   183   185   ar
   142   192   191    2
   143    10    13    1
   144     1     2    1
   145   191   190    1
   146   180   181    2
   147    59    62    1
   148    59    60    1
   149    65    63   ar
   150   198   196   ar
   151   198   199   ar
   152    62    63    1
   153     7     5    1
   154    63    64   ar
   155   188   187   ar
   156   196   194   ar
   157   185   187   ar
   158   103   101    1
   159   199   197   ar
   160    13    14    1
   161   104   102    1
   162     2     5    1
   163     2     3    1
   164    69    68    2
   165   102   101    1
   166    60    61    2
   167    88    86   ar
   168    88    87   ar
   169    71    70    1
   170     5     6    1
   171   190   193    1
   172   190   189    1
   173     6     8    1
   174    15    14   ar
   175   194   193    1
   176   194   195   ar
   177    86    84   ar
   178   197   195   ar
   179   101    98    1
   180    14    16   ar
   181     3     4    2
   182    68    67    1
   183    98    99    1
   184    98    97    1
   185    87    85   ar
   186    66    67    1
   187    99   100    2
   188    70    67    1
   189    84    83   ar
   190    85    83   ar
   191    96    94   ar
   192    83    82    1
   193    94    95   ar
   194    94    93    1
   195    77    76    1
   196    82    79    1
   197    93    90    1
   198    79    78    1
   199    79    80    1
   200    76    73    1
   201    92    91    2
   202    78    74   am
   203    75    74    2
   204    74    73    1
   205    91    90    1
   206    81    80    2
   207    90    89    1
   208    73    72    1
