@<TRIPOS>MOLECULE
tmp/1gvvA00.pdb
 193 179 0 0 0
SMALL
GASTEIGER

@<TRIPOS>ATOM
      1  N         14.9340  269.7600   15.9090 N.3    33  ASP33      -0.1239
      2  CA        13.8150  269.1020   15.2220 C.3    33  ASP33       0.1674
      3  C         13.6180  269.7260   13.8560 C.2    33  ASP33       0.2266
      4  O         13.1680  270.8960   13.7710 O.2    33  ASP33      -0.2867
      5  CB        12.6030  269.2700   16.1280 C.3    33  ASP33       0.1410
      6  CG        11.3980  268.5270   15.6780 C.2    33  ASP33       0.3668
      7  OD1       11.3010  268.0380   14.5470 O.co2  33  ASP33      -0.2456
      8  OD2       10.4870  268.4250   16.6030 O.co2  33  ASP33      -0.2456
      9  N         11.7980  270.6160   10.7350 N.3    35  ASP35      -0.1239
     10  CA        10.3560  270.7990   10.7020 C.3    35  ASP35       0.1674
     11  C          9.9070  271.3550    9.3770 C.2    35  ASP35       0.2266
     12  O          9.9760  272.5720    9.1770 O.2    35  ASP35      -0.2867
     13  CB        10.0100  271.7200   11.8680 C.3    35  ASP35       0.1410
     14  CG         8.5610  272.0100   11.9900 C.2    35  ASP35       0.3668
     15  OD1        7.7990  271.0640   11.5040 O.co2  35  ASP35      -0.2456
     16  OD2        8.0910  272.9880   12.5670 O.co2  35  ASP35      -0.2456
     17  N          7.0400  271.8170    8.5340 N.3    37  GLY37      -0.1210
     18  CA         5.8470  272.5930    8.8170 C.3    37  GLY37       0.1956
     19  C          6.0660  273.9540    9.4490 C.2    37  GLY37       0.2612
     20  O          5.1040  274.5590    9.8960 O.2    37  GLY37      -0.2717
     21  N          7.2800  274.4570    9.4850 N.am   38  SER38      -0.1952
     22  CA         7.5040  275.8410    9.9400 C.3    38  SER38       0.1924
     23  C          8.8080  276.3230    9.3000 C.2    38  SER38       0.2314
     24  O          9.4830  275.5550    8.6350 O.2    38  SER38      -0.2863
     25  CB         7.5550  275.9760   11.4690 C.3    38  SER38       0.2116
     26  OG         8.7600  275.3920   11.9730 O.3    38  SER38      -0.2180
     27  N          6.8290  282.7090   17.9120 N.3    75  ILE75      -0.1231
     28  CA         6.2020  281.6490   17.1340 C.3    75  ILE75       0.1692
     29  C          5.3110  280.8540   18.0440 C.2    75  ILE75       0.2593
     30  O          5.5650  280.6470   19.2370 O.2    75  ILE75      -0.2718
     31  CB         7.2710  280.7470   16.4920 C.3    75  ILE75       0.0266
     32  CG1        6.7110  279.8520   15.3820 C.3    75  ILE75       0.0019
     33  CG2        8.0560  279.9430   17.5280 C.3    75  ILE75       0.0020
     34  CD1        7.7130  279.3430   14.3890 C.3    75  ILE75       0.0001
     35  N          4.2070  280.3730   17.4320 N.am   76  SER76      -0.1938
     36  CA         3.3460  279.4380   18.1710 C.3    76  SER76       0.2055
     37  C          2.9330  278.3350   17.1940 C.2    76  SER76       0.2643
     38  O          2.6060  278.4980   16.0300 O.2    76  SER76      -0.2714
     39  CB         2.2600  280.3030   18.7670 C.3    76  SER76       0.2130
     40  OG         1.0500  279.6360   18.9800 O.3    76  SER76      -0.2179
     41  N          2.9580  277.1560   17.7790 N.am   77  TYR77      -0.1959
     42  CA         2.7980  275.9120   17.0260 C.3    77  TYR77       0.1771
     43  C          1.4330  275.3230   17.3080 C.2    77  TYR77       0.2620
     44  O          0.7420  275.6680   18.2800 O.2    77  TYR77      -0.2715
     45  CB         3.8920  274.9740   17.3980 C.3    77  TYR77       0.0574
     46  CG         5.2720  275.4550   17.0300 C.ar   77  TYR77      -0.0198
     47  CD1        5.7400  275.4400   15.7270 C.ar   77  TYR77      -0.0009
     48  CD2        6.1130  275.9340   18.0280 C.ar   77  TYR77      -0.0009
     49  CE1        7.0030  275.8920   15.3990 C.ar   77  TYR77       0.0417
     50  CE2        7.3770  276.3460   17.7290 C.ar   77  TYR77       0.0417
     51  CZ         7.8360  276.3050   16.3980 C.ar   77  TYR77       0.1957
     52  OH         9.1070  276.7430   16.1610 O.3    77  TYR77      -0.2866
     53  N          1.0320  274.3910   16.4450 N.am   78  GLY78      -0.1940
     54  CA        -0.2990  273.8080   16.5440 C.3    78  GLY78       0.2014
     55  C         -0.5670  273.1110   17.8530 C.2    78  GLY78       0.2638
     56  O         -1.6840  273.1140   18.3330 O.2    78  GLY78      -0.2714
     57  N          0.4570  272.5070   18.4650 N.am   79  ASP79      -0.1971
     58  CA         0.3030  271.8090   19.7560 C.3    79  ASP79       0.1709
     59  C          0.2910  272.7690   20.9590 C.2    79  ASP79       0.2293
     60  O          0.2010  272.3070   22.1130 O.2    79  ASP79      -0.2864
     61  CB         1.2570  270.6750   19.9050 C.3    79  ASP79       0.1436
     62  CG         2.7040  271.1070   19.9670 C.2    79  ASP79       0.3671
     63  OD1        2.9460  272.2930   20.3390 O.co2  79  ASP79      -0.2456
     64  OD2        3.5590  270.2170   19.6770 O.co2  79  ASP79      -0.2456
     65  N          2.6890  274.9410   21.7870 N.3    81  SER81      -0.1217
     66  CA         4.0030  275.3700   22.2150 C.3    81  SER81       0.1889
     67  C          4.3740  276.7040   21.5700 C.2    81  SER81       0.2288
     68  O          3.8140  277.1100   20.5520 O.2    81  SER81      -0.2866
     69  CB         4.9750  274.3410   21.6110 C.3    81  SER81       0.2089
     70  OG         4.8750  273.0270   22.1210 O.3    81  SER81      -0.2183
     71  N          8.5020  272.7730   25.7070 N.3   114  PHE114     -0.1241
     72  CA         9.8930  272.7310   25.2890 C.3   114  PHE114      0.1605
     73  C         10.7720  272.5060   26.5120 C.2   114  PHE114      0.2264
     74  O         11.6620  271.6620   26.4470 O.2   114  PHE114     -0.2867
     75  CB        10.2630  274.0120   24.5240 C.3   114  PHE114      0.0534
     76  CG         9.6870  274.0850   23.1310 C.ar  114  PHE114     -0.0203
     77  CD1       10.0030  273.1000   22.1810 C.ar  114  PHE114     -0.0042
     78  CD2        8.8390  275.1130   22.7470 C.ar  114  PHE114     -0.0042
     79  CE1        9.4580  273.1460   20.8950 C.ar  114  PHE114     -0.0003
     80  CE2        8.2990  275.1210   21.4650 C.ar  114  PHE114     -0.0003
     81  CZ         8.5890  274.1500   20.5380 C.ar  114  PHE114     -0.0000
     82  N         15.1960  267.9860   22.7340 N.3   120  ILE120     -0.1245
     83  CA        15.0550  268.9520   21.6230 C.3   120  ILE120      0.1561
     84  C         15.6490  270.2930   22.0510 C.2   120  ILE120      0.2260
     85  O         15.1660  270.9140   22.9900 O.2   120  ILE120     -0.2867
     86  CB        13.5770  269.0770   21.2140 C.3   120  ILE120      0.0252
     87  CG1       13.1190  267.7540   20.5610 C.3   120  ILE120      0.0019
     88  CG2       13.4030  270.2760   20.2740 C.3   120  ILE120      0.0019
     89  CD1       11.6040  267.6980   20.3640 C.3   120  ILE120      0.0001
     90  N         14.4380  274.1270   16.8960 N.3   123  LEU123     -0.1245
     91  CA        13.8090  273.7310   15.6450 C.3   123  LEU123      0.1561
     92  C         14.5990  274.2650   14.4690 C.2   123  LEU123      0.2260
     93  O         15.1860  275.3440   14.5240 O.2   123  LEU123     -0.2867
     94  CB        12.3690  274.2510   15.5130 C.3   123  LEU123      0.0270
     95  CG        11.3180  273.2100   15.9980 C.3   123  LEU123      0.0019
     96  CD1       11.4300  272.9950   17.4920 C.3   123  LEU123      0.0001
     97  CD2        9.9460  273.5980   15.5580 C.3   123  LEU123      0.0001
     98  N          6.7240  281.9410    5.8350 N.3   131  LEU131     -0.1245
     99  CA         6.2050  281.6580    7.1690 C.3   131  LEU131      0.1561
    100  C          7.1550  282.0400    8.2910 C.2   131  LEU131      0.2260
    101  O          6.8030  281.9150    9.4830 O.2   131  LEU131     -0.2867
    102  CB         5.8510  280.1690    7.3400 C.3   131  LEU131      0.0270
    103  CG         4.7320  279.6590    6.4100 C.3   131  LEU131      0.0019
    104  CD1        4.4250  278.2310    6.7800 C.3   131  LEU131      0.0001
    105  CD2        3.5300  280.5660    6.4870 C.3   131  LEU131      0.0001
    106  N          8.9350  283.9190   11.2250 N.3   133  THR133     -0.1218
    107  CA         8.2840  284.9010   12.1180 C.3   133  THR133      0.1862
    108  C          9.1380  286.1200   12.4520 C.2   133  THR133      0.2287
    109  O          8.6740  286.9490   13.2560 O.2   133  THR133     -0.2866
    110  CB         7.7650  284.2990   13.4250 C.3   133  THR133      0.1770
    111  OG1        8.8440  284.0250   14.3540 O.3   133  THR133     -0.2211
    112  CG2        6.9660  283.0230   13.1900 C.3   133  THR133      0.0375
    113  N          3.3190  276.3190    3.0850 N.3   192  PHE192     -0.1241
    114  CA         3.6600  274.9300    3.4350 C.3   192  PHE192      0.1605
    115  C          3.9740  274.1200    2.1770 C.2   192  PHE192      0.2264
    116  O          3.6990  274.5290    1.0340 O.2   192  PHE192     -0.2867
    117  CB         2.4710  274.2630    4.1610 C.3   192  PHE192      0.0534
    118  CG         2.1020  274.8600    5.4920 C.ar  192  PHE192     -0.0203
    119  CD1        2.9050  274.7700    6.5790 C.ar  192  PHE192     -0.0042
    120  CD2        0.8950  275.4860    5.6390 C.ar  192  PHE192     -0.0042
    121  CE1        2.5670  275.3060    7.7860 C.ar  192  PHE192     -0.0003
    122  CE2        0.5270  276.0700    6.8500 C.ar  192  PHE192     -0.0003
    123  CZ         1.3870  275.9700    7.9330 C.ar  192  PHE192     -0.0000
    124  N         -0.5630  268.7960    4.1940 N.3   215  ILE215     -0.1245
    125  CA         0.8050  269.2820    4.2350 C.3   215  ILE215      0.1561
    126  C          1.7510  268.1680    4.6300 C.2   215  ILE215      0.2260
    127  O          1.4280  267.3160    5.4730 O.2   215  ILE215     -0.2867
    128  CB         0.9700  270.5020    5.1100 C.3   215  ILE215      0.0252
    129  CG1        0.7730  270.2080    6.5730 C.3   215  ILE215      0.0019
    130  CG2        0.0820  271.6730    4.6110 C.3   215  ILE215      0.0019
    131  CD1        1.2580  271.3010    7.5000 C.3   215  ILE215      0.0001
    132  N          4.6050  267.3300    6.8070 N.3   217  ASP217     -0.1239
    133  CA         5.1700  267.9420    7.9940 C.3   217  ASP217      0.1674
    134  C          5.9720  266.9700    8.8450 C.2   217  ASP217      0.2266
    135  O          5.4070  266.2230    9.6380 O.2   217  ASP217     -0.2867
    136  CB         4.0720  268.6190    8.8480 C.3   217  ASP217      0.1410
    137  CG         4.6930  269.4290    9.9990 C.2   217  ASP217      0.3668
    138  OD1        5.9120  269.5180   10.0380 O.co2 217  ASP217     -0.2456
    139  OD2        3.9020  269.9980   10.7990 O.co2 217  ASP217     -0.2456
    140  N          7.5770  267.6850   11.3800 N.3   219  GLY219     -0.1210
    141  CA         7.4600  268.0610   12.7840 C.3   219  GLY219      0.1956
    142  C          6.1280  267.7700   13.4210 C.2   219  GLY219      0.2613
    143  O          5.8890  268.2310   14.5610 O.2   219  GLY219     -0.2717
    144  N          5.2640  267.0330   12.7370 N.am  220  THR220     -0.1938
    145  CA         4.0540  266.5290   13.3510 C.3   220  THR220      0.2028
    146  C          4.1900  265.0140   13.4870 C.2   220  THR220      0.2642
    147  O          4.6230  264.3490   12.5390 O.2   220  THR220     -0.2714
    148  CB         2.8310  266.9190   12.4990 C.3   220  THR220      0.1808
    149  OG1        2.6300  268.3410   12.6130 O.3   220  THR220     -0.2208
    150  CG2        1.5790  266.2290   12.9600 C.3   220  THR220      0.0379
    151  N          3.8190  264.4890   14.6570 N.am  221  THR221     -0.1950
    152  CA         4.0310  263.0690   14.9480 C.3   221  THR221      0.1897
    153  C          3.1370  262.1560   14.1090 C.2   221  THR221      0.2313
    154  O          3.6060  261.1280   13.5850 O.2   221  THR221     -0.2863
    155  CB         3.8040  262.8370   16.4610 C.3   221  THR221      0.1794
    156  OG1        4.5580  263.7750   17.2110 O.3   221  THR221     -0.2208
    157  CG2        4.1370  261.4050   16.8350 C.3   221  THR221      0.0378
    158  N         -2.8660  263.0460   10.2660 N.3   224  TYR224     -0.1241
    159  CA        -4.1580  263.6390   10.5100 C.3   224  TYR224      0.1605
    160  C         -4.8870  263.7890    9.1780 C.2   224  TYR224      0.2264
    161  O         -4.4260  264.4790    8.2590 O.2   224  TYR224     -0.2867
    162  CB        -4.0300  265.0340   11.1630 C.3   224  TYR224      0.0534
    163  CG        -3.5130  264.9410   12.5960 C.ar  224  TYR224     -0.0201
    164  CD1       -4.2910  264.6870   13.6920 C.ar  224  TYR224     -0.0009
    165  CD2       -2.1610  265.1230   12.8290 C.ar  224  TYR224     -0.0009
    166  CE1       -3.8080  264.6040   14.9770 C.ar  224  TYR224      0.0417
    167  CE2       -1.6430  265.0360   14.1160 C.ar  224  TYR224      0.0417
    168  CZ        -2.4570  264.7750   15.1910 C.ar  224  TYR224      0.1957
    169  OH        -1.9180  264.6930   16.4770 O.3   224  TYR224     -0.2866
    170  N         -8.0110  270.2250   14.1340 N.3   298  ILE298     -0.1245
    171  CA        -6.9170  271.1550   13.8400 C.3   298  ILE298      0.1561
    172  C         -7.0910  271.8510   12.5090 C.2   298  ILE298      0.2260
    173  O         -6.4180  272.8390   12.2770 O.2   298  ILE298     -0.2867
    174  CB        -5.5620  270.4700   13.8370 C.3   298  ILE298      0.0252
    175  CG1       -5.5670  269.3030   12.8340 C.3   298  ILE298      0.0019
    176  CG2       -5.1800  270.0090   15.2280 C.3   298  ILE298      0.0019
    177  CD1       -4.1860  268.7050   12.5690 C.3   298  ILE298      0.0001
    178  N         -6.5850  271.2090    9.3160 N.3   300  ILE300     -0.1245
    179  CA        -5.7430  270.9870    8.1580 C.3   300  ILE300      0.1561
    180  C         -5.3470  269.5060    8.2200 C.2   300  ILE300      0.2260
    181  O         -5.1230  268.9610    9.3140 O.2   300  ILE300     -0.2867
    182  CB        -4.5140  271.8860    8.1780 C.3   300  ILE300      0.0252
    183  CG1       -3.6190  271.7650    6.9550 C.3   300  ILE300      0.0019
    184  CG2       -3.6580  271.6530    9.4330 C.3   300  ILE300      0.0019
    185  CD1       -2.6950  272.9790    6.8700 C.3   300  ILE300      0.0001
    186  N         -2.6170  266.6580    7.7540 N.3   302  ILE302     -0.1245
    187  CA        -1.1720  266.7040    7.9630 C.3   302  ILE302      0.1561
    188  C         -0.6150  265.3020    7.7590 C.2   302  ILE302      0.2260
    189  O         -0.9360  264.3550    8.5150 O.2   302  ILE302     -0.2867
    190  CB        -0.7720  267.2240    9.3530 C.3   302  ILE302      0.0252
    191  CG1       -1.3690  268.5880    9.6490 C.3   302  ILE302      0.0019
    192  CG2        0.7590  267.2560    9.4080 C.3   302  ILE302      0.0019
    193  CD1       -1.0690  269.0820   11.0370 C.3   302  ILE302      0.0001
@<TRIPOS>BOND
     1   116   115    2
     2   115   114    1
     3   113   114    1
     4   114   117    1
     5   117   118    1
     6   124   125    1
     7   125   126    1
     8   125   128    1
     9   130   128    1
    10   126   127    2
    11   128   129    1
    12   118   120   ar
    13   118   119   ar
    14   120   122   ar
    15    98    99    1
    16   103   105    1
    17   103   104    1
    18   103   102    1
    19   129   131    1
    20   119   121   ar
    21   132   133    1
    22   122   123   ar
    23   185   183    1
    24   183   182    1
    25    99   102    1
    26    99   100    1
    27   186   187    1
    28   188   187    1
    29   188   189    2
    30   121   123   ar
    31   187   190    1
    32   133   134    1
    33   133   136    1
    34   179   182    1
    35   179   180    1
    36   179   178    1
    37   182   184    1
    38   180   181    2
    39   161   160    2
    40   100   101    2
    41    17    18    1
    42    24    23    2
    43    18    19    1
    44   134   135    2
    45   136   137    1
    46    12    11    2
    47   160   159    1
    48    23    22    1
    49   190   192    1
    50   190   191    1
    51    11    10    1
    52    19    21   am
    53    19    20    2
    54    21    22    1
    55   191   193    1
    56    22    25    1
    57   137   138   ar
    58   137   139   ar
    59   158   159    1
    60   159   162    1
    61    10     9    1
    62    10    13    1
    63   162   163    1
    64   106   107    1
    65   140   141    1
    66    25    26    1
    67    15    14   ar
    68    13    14    1
    69    14    16   ar
    70   107   108    1
    71   107   110    1
    72   173   172    2
    73   108   109    2
    74   148   149    1
    75   148   150    1
    76   148   145    1
    77   172   171    1
    78   147   146    2
    79   177   175    1
    80   163   165   ar
    81   163   164   ar
    82   144   145    1
    83   144   142   am
    84   141   142    1
    85   165   167   ar
    86   175   174    1
    87   112   110    1
    88   145   146    1
    89   142   143    2
    90   110   111    1
    91   146   151   am
    92   154   153    2
    93   164   166   ar
    94     4     3    2
    95   174   171    1
    96   174   176    1
    97   171   170    1
    98     3     2    1
    99   153   152    1
   100   167   168   ar
   101    34    32    1
   102    92    93    2
   103    92    91    1
   104     7     6   ar
   105   151   152    1
   106   152   155    1
   107   166   168   ar
   108   168   169    1
   109     2     1    1
   110     2     5    1
   111    32    31    1
   112    49    47   ar
   113    49    51   ar
   114    94    91    1
   115    94    95    1
   116    97    95    1
   117    91    90    1
   118     6     5    1
   119     6     8   ar
   120    47    46   ar
   121    95    96    1
   122    38    37    2
   123    52    51    1
   124    51    50   ar
   125    53    54    1
   126    53    43   am
   127   155   157    1
   128   155   156    1
   129    31    28    1
   130    31    33    1
   131    54    55    1
   132    42    43    1
   133    42    45    1
   134    42    41    1
   135    46    45    1
   136    46    48   ar
   137    28    27    1
   138    28    29    1
   139    37    41   am
   140    37    36    1
   141    43    44    2
   142    35    29   am
   143    35    36    1
   144    50    48   ar
   145    55    56    2
   146    55    57   am
   147    29    30    2
   148    36    39    1
   149    57    58    1
   150    39    40    1
   151    64    62   ar
   152    58    61    1
   153    58    59    1
   154    61    62    1
   155    62    63   ar
   156    88    86    1
   157    89    87    1
   158    81    79   ar
   159    81    80   ar
   160    68    67    2
   161    87    86    1
   162    79    77   ar
   163    59    60    2
   164    86    83    1
   165    80    78   ar
   166    67    66    1
   167    69    70    1
   168    69    66    1
   169    83    84    1
   170    83    82    1
   171    65    66    1
   172    84    85    2
   173    77    76   ar
   174    78    76   ar
   175    76    75    1
   176    75    72    1
   177    72    71    1
   178    72    73    1
   179    74    73    2
