@<TRIPOS>MOLECULE
tmp/1gw0A03.pdb
 118 115 0 0 0
SMALL
GASTEIGER

@<TRIPOS>ATOM
      1  N        -16.0470  -12.3660   14.2680 N.3   214  TYR214     -0.1241
      2  CA       -14.6220  -12.6140   14.1410 C.3   214  TYR214      0.1605
      3  C        -14.2700  -13.2990   12.8260 C.2   214  TYR214      0.2264
      4  O        -15.0100  -14.1540   12.3400 O.2   214  TYR214     -0.2867
      5  CB       -14.1360  -13.4830   15.3040 C.3   214  TYR214      0.0534
      6  CG       -14.2250  -12.8190   16.6610 C.ar  214  TYR214     -0.0201
      7  CD1      -15.0510  -13.3350   17.6650 C.ar  214  TYR214     -0.0009
      8  CD2      -13.4720  -11.6800   16.9490 C.ar  214  TYR214     -0.0009
      9  CE1      -15.1200  -12.7320   18.9240 C.ar  214  TYR214      0.0417
     10  CE2      -13.5340  -11.0710   18.1970 C.ar  214  TYR214      0.0417
     11  CZ       -14.3570  -11.5990   19.1800 C.ar  214  TYR214      0.1957
     12  OH       -14.3990  -10.9920   20.4130 O.3   214  TYR214     -0.2866
     13  N          0.0140  -11.3910   15.9010 N.3   241  SER241     -0.1217
     14  CA         0.5320  -12.6170   16.4930 C.3   241  SER241      0.1889
     15  C         -0.5580  -13.6760   16.6850 C.2   241  SER241      0.2288
     16  O         -1.7430  -13.3670   16.7840 O.2   241  SER241     -0.2866
     17  CB         1.1920  -12.3000   17.8410 C.3   241  SER241      0.2089
     18  OG         0.2920  -11.6030   18.6860 O.3   241  SER241     -0.2183
     19  N         -1.6910  -16.6810   19.1770 N.3   243  VAL243     -0.1245
     20  CA        -1.4910  -17.3130   20.4720 C.3   243  VAL243      0.1561
     21  C         -0.9130  -18.7270   20.3430 C.2   243  VAL243      0.2260
     22  O         -1.4020  -19.5540   19.5610 O.2   243  VAL243     -0.2867
     23  CB        -2.8210  -17.3840   21.2620 C.3   243  VAL243      0.0252
     24  CG1       -2.6340  -18.1930   22.5440 C.3   243  VAL243      0.0019
     25  CG2       -3.3000  -15.9870   21.5920 C.3   243  VAL243      0.0019
     26  N         -6.4560  -17.3890   19.2740 N.3   287  TRP287     -0.1241
     27  CA        -6.6560  -15.9860   18.9380 C.3   287  TRP287      0.1605
     28  C         -5.5470  -15.4160   18.0630 C.2   287  TRP287      0.2264
     29  O         -4.3710  -15.5380   18.3950 O.2   287  TRP287     -0.2867
     30  CB        -6.6940  -15.1260   20.2070 C.3   287  TRP287      0.0550
     31  CG        -7.9290  -15.1960   21.0460 C.ar  287  TRP287      0.0003
     32  CD1       -7.9980  -15.5280   22.3700 C.ar  287  TRP287      0.0946
     33  CD2       -9.2530  -14.8150   20.6610 C.ar  287  TRP287      0.0152
     34  NE1       -9.2790  -15.3690   22.8350 N.ar  287  TRP287     -0.2442
     35  CE2      -10.0710  -14.9320   21.8070 C.ar  287  TRP287      0.0810
     36  CE3       -9.8290  -14.3830   19.4600 C.ar  287  TRP287      0.0012
     37  CZ2      -11.4360  -14.6300   21.7880 C.ar  287  TRP287      0.0191
     38  CZ3      -11.1880  -14.0820   19.4400 C.ar  287  TRP287      0.0001
     39  CH2      -11.9740  -14.2070   20.5980 C.ar  287  TRP287      0.0015
     40  N         -4.1970  -12.1220   17.2590 N.3   289  ASN289     -0.1240
     41  CA        -4.3060  -10.7710   17.8110 C.3   289  ASN289      0.1653
     42  C         -3.6450   -9.6240   17.0640 C.2   289  ASN289      0.2266
     43  O         -2.5610   -9.7640   16.4900 O.2   289  ASN289     -0.2867
     44  CB        -3.7780  -10.7430   19.2500 C.3   289  ASN289      0.1155
     45  CG        -4.6980  -11.4510   20.2250 C.2   289  ASN289      0.2627
     46  OD1       -4.5540  -12.6490   20.4860 O.2   289  ASN289     -0.2716
     47  ND2       -5.6600  -10.7040   20.7530 N.am  289  ASN289     -0.0877
     48  N         -2.3620   -5.8790   17.8910 N.3   291  THR291     -0.1218
     49  CA        -2.0630   -4.9770   18.9940 C.3   291  THR291      0.1862
     50  C         -1.2570   -3.7880   18.5080 C.2   291  THR291      0.2287
     51  O         -0.6600   -3.8270   17.4370 O.2   291  THR291     -0.2866
     52  CB        -1.2580   -5.6930   20.0840 C.3   291  THR291      0.1770
     53  OG1       -0.0370   -6.1940   19.5170 O.3   291  THR291     -0.2211
     54  CG2       -2.0670   -6.8460   20.6690 C.3   291  THR291      0.0375
     55  N         -9.3100   -4.7860   21.6610 N.3   305  HIS305     -0.1241
     56  CA        -8.6860   -6.0440   21.2690 C.3   305  HIS305      0.1621
     57  C         -9.1220   -6.6180   19.9340 C.2   305  HIS305      0.2264
     58  O         -9.8240   -7.6260   19.8870 O.2   305  HIS305     -0.2867
     59  CB        -8.9190   -7.0910   22.3600 C.3   305  HIS305      0.0745
     60  CG        -8.5420   -6.6280   23.7320 C.ar  305  HIS305      0.0817
     61  ND1       -7.2510   -6.2860   24.0740 N.ar  305  HIS305     -0.2268
     62  CD2       -9.2850   -6.4600   24.8510 C.ar  305  HIS305      0.1154
     63  CE1       -7.2150   -5.9300   25.3460 C.ar  305  HIS305      0.1986
     64  NE2       -8.4360   -6.0270   25.8410 N.ar  305  HIS305     -0.2212
     65  N         -9.2700   -8.8340   16.8220 N.3   307  ALA307     -0.1245
     66  CA        -8.7390  -10.1780   16.6530 C.3   307  ALA307      0.1562
     67  C         -9.5870  -11.0770   15.7840 C.2   307  ALA307      0.2260
     68  O        -10.7520  -10.7990   15.5200 O.2   307  ALA307     -0.2867
     69  CB        -8.5290  -10.8320   18.0130 C.3   307  ALA307      0.0290
     70  N        -15.3690  -19.7490   21.0480 N.3   319  LEU319     -0.1231
     71  CA       -14.3690  -18.6950   21.0880 C.3   319  LEU319      0.1678
     72  C        -13.1100  -19.2540   21.7440 C.2   319  LEU319      0.2434
     73  O        -13.1890  -20.1110   22.6250 O.2   319  LEU319     -0.2733
     74  CB       -14.8730  -17.4970   21.9040 C.3   319  LEU319      0.0284
     75  CG       -16.0540  -16.6670   21.3950 C.3   319  LEU319      0.0019
     76  CD1      -16.3200  -15.5250   22.3670 C.3   319  LEU319      0.0001
     77  CD2      -15.7430  -16.1210   20.0100 C.3   319  LEU319      0.0001
     78  N        -11.9280  -18.7900   21.3100 N.am  320  PRO320     -0.2729
     79  CA       -10.7010  -19.2990   21.9250 C.3   320  PRO320      0.1401
     80  C        -10.7780  -19.0370   23.4280 C.2   320  PRO320      0.2269
     81  O        -11.5010  -18.1410   23.8660 O.2   320  PRO320     -0.2865
     82  CB        -9.6100  -18.4760   21.2450 C.3   320  PRO320      0.0296
     83  CG       -10.1830  -18.2360   19.8830 C.3   320  PRO320      0.0237
     84  CD       -11.6220  -17.8840   20.1880 C.3   320  PRO320      0.0939
     85  N         -6.1420  -16.3010   26.3260 N.3   323  GLU323     -0.1231
     86  CA        -5.8990  -14.9190   25.9310 C.3   323  GLU323      0.1699
     87  C         -4.4450  -14.5980   25.5770 C.2   323  GLU323      0.2593
     88  O         -4.1590  -13.5480   24.9990 O.2   323  GLU323     -0.2718
     89  CB        -6.3940  -13.9770   27.0340 C.3   323  GLU323      0.0402
     90  CG        -7.9080  -13.8080   27.0460 C.3   323  GLU323      0.1161
     91  CD        -8.4080  -12.9300   28.1820 C.2   323  GLU323      0.3649
     92  OE1       -7.7550  -11.9050   28.4790 O.co2 323  GLU323     -0.2457
     93  OE2       -9.4630  -13.2560   28.7680 O.co2 323  GLU323     -0.2457
     94  N         -3.5330  -15.5010   25.9230 N.am  324  GLY324     -0.1942
     95  CA        -2.1280  -15.2900   25.6160 C.3   324  GLY324      0.2014
     96  C         -1.4680  -14.0760   26.2520 C.2   324  GLY324      0.2640
     97  O         -2.0920  -13.3230   27.0000 O.2   324  GLY324     -0.2714
     98  N         -0.1900  -13.8840   25.9380 N.am  325  THR325     -0.1937
     99  CA         0.5960  -12.7760   26.4710 C.3   325  THR325      0.2013
    100  C          0.8450  -11.7060   25.4100 C.2   325  THR325      0.2484
    101  O          1.0850  -12.0220   24.2470 O.2   325  THR325     -0.2729
    102  CB         1.9550  -13.2830   26.9900 C.3   325  THR325      0.1807
    103  OG1        2.7790  -12.1700   27.3510 O.3   325  THR325     -0.2208
    104  CG2        2.6610  -14.1030   25.9180 C.3   325  THR325      0.0379
    105  N          0.7980  -10.4210   25.8020 N.am  326  PRO326     -0.2715
    106  CA         1.0210   -9.3110   24.8680 C.3   326  PRO326      0.1521
    107  C          2.4050   -9.3440   24.2210 C.2   326  PRO326      0.2440
    108  O          3.4210   -9.4460   24.9080 O.2   326  PRO326     -0.2731
    109  CB         0.8140   -8.0770   25.7450 C.3   326  PRO326      0.0310
    110  CG         1.2750   -8.5440   27.0950 C.3   326  PRO326      0.0237
    111  CD         0.6330   -9.9170   27.1770 C.3   326  PRO326      0.0939
    112  N          2.4580   -9.2410   22.8820 N.am  327  PRO327     -0.2727
    113  CA         3.7220   -9.2650   22.1440 C.3   327  PRO327      0.1402
    114  C          4.6120   -8.0930   22.5030 C.2   327  PRO327      0.2269
    115  O          4.1600   -7.1120   23.0920 O.2   327  PRO327     -0.2865
    116  CB         3.2670   -9.2080   20.6930 C.3   327  PRO327      0.0296
    117  CG         2.0870   -8.3010   20.7780 C.3   327  PRO327      0.0237
    118  CD         1.3500   -8.8540   21.9890 C.3   327  PRO327      0.0939
@<TRIPOS>BOND
     1     4     3    2
     2     3     2    1
     3     2     1    1
     4     2     5    1
     5     5     6    1
     6    68    67    2
     7    67    66    1
     8    13    14    1
     9    43    42    2
    10    14    15    1
    11    14    17    1
    12    66    65    1
    13    66    69    1
    14     6     8   ar
    15     6     7   ar
    16    15    16    2
    17     8    10   ar
    18    42    41    1
    19    40    41    1
    20    51    50    2
    21     7     9   ar
    22    41    44    1
    23    17    18    1
    24    48    49    1
    25    28    29    2
    26    28    27    1
    27    10    11   ar
    28    50    49    1
    29     9    11   ar
    30    27    26    1
    31    27    30    1
    32    49    52    1
    33    19    20    1
    34    11    12    1
    35    44    45    1
    36    38    36   ar
    37    38    39   ar
    38    36    33   ar
    39    53    52    1
    40    22    21    2
    41    83    84    1
    42    83    82    1
    43    58    57    2
    44    57    56    1
    45    77    75    1
    46    52    54    1
    47    84    78    1
    48    30    31    1
    49    45    46    2
    50    45    47   am
    51    21    20    1
    52    20    23    1
    53    39    37   ar
    54    33    31   ar
    55    33    35   ar
    56   116   117    1
    57   116   113    1
    58   117   118    1
    59    31    32   ar
    60    70    71    1
    61    71    72    1
    62    71    74    1
    63    82    79    1
    64    23    25    1
    65    23    24    1
    66    56    55    1
    67    56    59    1
    68    78    72   am
    69    78    79    1
    70    75    74    1
    71    75    76    1
    72    72    73    2
    73    37    35   ar
    74    35    34   ar
    75    79    80    1
    76   118   112    1
    77   113   114    1
    78   113   112    1
    79    59    60    1
    80    32    34   ar
    81   114   115    2
    82   112   107   am
    83    80    81    2
    84    60    61   ar
    85    60    62   ar
    86    61    63   ar
    87   107   106    1
    88   107   108    2
    89   101   100    2
    90    62    64   ar
    91   106   109    1
    92   106   105    1
    93    88    87    2
    94    63    64   ar
    95   100   105   am
    96   100    99    1
    97    87    94   am
    98    87    86    1
    99    95    94    1
   100    95    96    1
   101   109   110    1
   102   105   111    1
   103   104   102    1
   104    86    85    1
   105    86    89    1
   106    98    96   am
   107    98    99    1
   108    96    97    2
   109    99   102    1
   110   102   103    1
   111    89    90    1
   112    90    91    1
   113   110   111    1
   114    91    92   ar
   115    91    93   ar
