@<TRIPOS>MOLECULE
tmp/1gw0A01.pdb
 210 205 0 0 0
SMALL
GASTEIGER

@<TRIPOS>ATOM
      1  N        -21.0980    5.1910   -5.3500 N.3    42  GLU42      -0.1245
      2  CA       -21.1370    5.9620   -4.1250 C.3    42  GLU42       0.1567
      3  C        -22.4290    5.5280   -3.4250 C.2    42  GLU42       0.2260
      4  O        -23.5210    5.7650   -3.9360 O.2    42  GLU42      -0.2867
      5  CB       -21.1560    7.4500   -4.4970 C.3    42  GLU42       0.0388
      6  CG       -20.9570    8.4450   -3.3740 C.3    42  GLU42       0.1160
      7  CD       -20.6110    9.8400   -3.9070 C.2    42  GLU42       0.3649
      8  OE1      -20.7220   10.8280   -3.1480 O.co2  42  GLU42      -0.2457
      9  OE2      -20.2110    9.9450   -5.0870 O.co2  42  GLU42      -0.2457
     10  N        -22.0890    6.9490    6.9820 N.3    55  GLU55      -0.1231
     11  CA       -22.7800    7.9970    6.2480 C.3    55  GLU55       0.1699
     12  C        -22.6230    7.8620    4.7310 C.2    55  GLU55       0.2592
     13  O        -23.5700    8.0910    3.9780 O.2    55  GLU55      -0.2718
     14  CB       -22.2440    9.3500    6.7240 C.3    55  GLU55       0.0402
     15  CG       -22.5510   10.5320    5.8350 C.3    55  GLU55       0.1161
     16  CD       -21.9530   11.8150    6.3780 C.2    55  GLU55       0.3649
     17  OE1      -21.9420   12.8250    5.6520 O.co2  55  GLU55      -0.2457
     18  OE2      -21.4960   11.8150    7.5410 O.co2  55  GLU55      -0.2457
     19  N        -21.4260    7.4830    4.2930 N.am   56  LYS56      -0.1980
     20  CA       -21.1340    7.3420    2.8720 C.3    56  LYS56       0.1596
     21  C        -19.8920    6.4940    2.6190 C.2    56  LYS56       0.2287
     22  O        -18.9130    6.5770    3.3610 O.2    56  LYS56      -0.2864
     23  CB       -20.9150    8.7210    2.2380 C.3    56  LYS56       0.0298
     24  CG       -20.5190    8.6550    0.7620 C.3    56  LYS56       0.0038
     25  CD       -20.1430   10.0080    0.1860 C.3    56  LYS56       0.0206
     26  CE       -21.3130   10.9750    0.1780 C.3    56  LYS56       0.1093
     27  NZ       -22.3840   10.5490   -0.7670 N.3    56  LYS56      -0.1314
     28  N        -17.5100    4.4190   -0.8060 N.3    58  MET58      -0.1245
     29  CA       -17.2860    4.3140   -2.2390 C.3    58  MET58       0.1570
     30  C        -16.8040    2.8880   -2.4720 C.2    58  MET58       0.2261
     31  O        -15.7720    2.4670   -1.9530 O.2    58  MET58      -0.2867
     32  CB       -16.2870    5.3780   -2.6860 C.3    58  MET58       0.0387
     33  CG       -16.9030    6.7800   -2.5780 C.3    58  MET58       0.0595
     34  SD       -15.7870    8.1790   -2.8160 S.3    58  MET58      -0.1393
     35  CE       -16.8920    9.5490   -2.4050 C.3    58  MET58       0.0692
     36  N        -19.3180   12.9790   -7.7820 N.3    87  THR87      -0.1203
     37  CA       -18.4690   14.1270   -8.1060 C.3    87  THR87       0.1994
     38  C        -16.9920   13.8000   -8.2720 C.2    87  THR87       0.2617
     39  O        -16.3390   14.3120   -9.1730 O.2    87  THR87      -0.2717
     40  CB       -18.5780   15.2480   -7.0400 C.3    87  THR87       0.1784
     41  OG1      -18.2230   14.7230   -5.7550 O.3    87  THR87      -0.2211
     42  CG2      -19.9910   15.8190   -6.9930 C.3    87  THR87       0.0376
     43  N        -16.4730   12.9460   -7.4000 N.am   88  ASN88      -0.1974
     44  CA       -15.0620   12.5700   -7.4190 C.3    88  ASN88       0.1688
     45  C        -14.4800   12.0290   -8.7220 C.2    88  ASN88       0.2292
     46  O        -15.1410   11.3050   -9.4690 O.2    88  ASN88      -0.2864
     47  CB       -14.7740   11.5120   -6.3500 C.3    88  ASN88       0.1181
     48  CG       -14.6830   12.0790   -4.9510 C.2    88  ASN88       0.2629
     49  OD1      -14.1520   11.4110   -4.0630 O.2    88  ASN88      -0.2716
     50  ND2      -15.2010   13.2840   -4.7280 N.am   88  ASN88      -0.0877
     51  N         -6.7260    9.3190   -5.4080 N.3   141  PHE141     -0.1241
     52  CA        -7.4610   10.5830   -5.5300 C.3   141  PHE141      0.1605
     53  C         -7.6670   11.0710   -4.0960 C.2   141  PHE141      0.2264
     54  O         -8.7000   10.7970   -3.4750 O.2   141  PHE141     -0.2867
     55  CB        -8.8230   10.3350   -6.2070 C.3   141  PHE141      0.0534
     56  CG        -9.6130   11.5940   -6.4960 C.ar  141  PHE141     -0.0203
     57  CD1       -9.3120   12.3870   -7.6020 C.ar  141  PHE141     -0.0042
     58  CD2      -10.6660   11.9770   -5.6640 C.ar  141  PHE141     -0.0042
     59  CE1      -10.0530   13.5460   -7.8800 C.ar  141  PHE141     -0.0003
     60  CE2      -11.4090   13.1300   -5.9300 C.ar  141  PHE141     -0.0003
     61  CZ       -11.1020   13.9160   -7.0430 C.ar  141  PHE141     -0.0000
     62  N        -12.6250    5.4380    1.7990 N.3   147  ASN147     -0.1240
     63  CA       -14.0630    5.2060    1.7260 C.3   147  ASN147      0.1653
     64  C        -14.3570    3.8020    1.2000 C.2   147  ASN147      0.2266
     65  O        -15.4970    3.3450    1.2610 O.2   147  ASN147     -0.2867
     66  CB       -14.7540    6.2380    0.8150 C.3   147  ASN147      0.1155
     67  CG       -14.7700    7.6440    1.4090 C.2   147  ASN147      0.2627
     68  OD1      -14.9380    7.8190    2.6180 O.2   147  ASN147     -0.2716
     69  ND2      -14.6230    8.6550    0.5500 N.am  147  ASN147     -0.0877
     70  N        -16.5220    7.8810    9.9940 N.3   178  ARG178     -0.1231
     71  CA       -16.5600    9.1380    9.2600 C.3   178  ARG178      0.1694
     72  C        -15.9640    8.9500    7.8650 C.2   178  ARG178      0.2591
     73  O        -15.1820    8.0210    7.6380 O.2   178  ARG178     -0.2718
     74  CB       -15.8030   10.2240   10.0330 C.3   178  ARG178      0.0321
     75  CG       -16.5430   10.7080   11.2820 C.3   178  ARG178      0.0489
     76  CD       -15.7390   11.7390   12.0820 C.3   178  ARG178      0.2205
     77  NE       -15.5070   12.9750   11.3360 N.pl3 178  ARG178     -0.0865
     78  CZ       -14.8230   14.0180   11.8000 C.cat 178  ARG178      0.5346
     79  NH1      -14.2960   13.9860   13.0200 N.pl3 178  ARG178      0.1354
     80  NH2      -14.6610   15.0970   11.0410 N.pl3 178  ARG178      0.1354
     81  N        -16.3420    9.8290    6.9360 N.am  179  ALA179     -0.1980
     82  CA       -15.8630    9.7600    5.5520 C.3   179  ALA179      0.1597
     83  C        -14.4780   10.3700    5.3720 C.2   179  ALA179      0.2287
     84  O        -14.1070   11.3030    6.0740 O.2   179  ALA179     -0.2864
     85  CB       -16.8570   10.4480    4.6180 C.3   179  ALA179      0.0319
     86  N        -13.0820   12.4620    3.2110 N.3   181  ASP181     -0.1225
     87  CA       -12.9920   13.9070    3.0250 C.3   181  ASP181      0.1805
     88  C        -13.2420   14.6590    4.3220 C.2   181  ASP181      0.2597
     89  O        -12.6950   15.7400    4.5410 O.2   181  ASP181     -0.2718
     90  CB       -13.9700   14.3660    1.9470 C.3   181  ASP181      0.1424
     91  CG       -13.5340   13.9390    0.5500 C.2   181  ASP181      0.3668
     92  OD1      -12.5420   14.4970    0.0340 O.co2 181  ASP181     -0.2456
     93  OD2      -14.1770   13.0400   -0.0300 O.co2 181  ASP181     -0.2456
     94  N        -14.0620   14.0820    5.1910 N.am  182  ASP182     -0.1974
     95  CA       -14.3470   14.7220    6.4600 C.3   182  ASP182      0.1709
     96  C        -13.1150   14.5720    7.3520 C.2   182  ASP182      0.2293
     97  O        -12.6780   15.5250    7.9850 O.2   182  ASP182     -0.2864
     98  CB       -15.5880   14.0910    7.1050 C.3   182  ASP182      0.1436
     99  CG       -15.9770   14.7660    8.4110 C.2   182  ASP182      0.3671
    100  OD1      -15.6730   15.9690    8.5820 O.co2 182  ASP182     -0.2456
    101  OD2      -16.6000   14.0980    9.2660 O.co2 182  ASP182     -0.2456
    102  N        -10.3350   16.9480    6.3110 N.3   185  HIS185     -0.1226
    103  CA       -10.6250   18.2920    6.7910 C.3   185  HIS185      0.1752
    104  C        -10.3180   18.3770    8.2820 C.2   185  HIS185      0.2596
    105  O         -9.7350   19.3510    8.7520 O.2   185  HIS185     -0.2718
    106  CB       -12.0930   18.6310    6.5580 C.3   185  HIS185      0.0759
    107  CG       -12.4900   19.9700    7.0890 C.ar  185  HIS185      0.0818
    108  ND1      -12.1930   21.1500    6.4390 N.ar  185  HIS185     -0.2268
    109  CD2      -13.1290   20.3200    8.2290 C.ar  185  HIS185      0.1154
    110  CE1      -12.6330   22.1680    7.1560 C.ar  185  HIS185      0.1986
    111  NE2      -13.2040   21.6920    8.2480 N.ar  185  HIS185     -0.2212
    112  N        -10.7090   17.3400    9.0130 N.am  186  PHE186     -0.1976
    113  CA       -10.4810   17.2770   10.4490 C.3   186  PHE186      0.1639
    114  C         -8.9850   17.2630   10.7950 C.2   186  PHE186      0.2290
    115  O         -8.5440   17.9760   11.6940 O.2   186  PHE186     -0.2864
    116  CB       -11.1480   16.0270   11.0120 C.3   186  PHE186      0.0560
    117  CG       -11.0050   15.8810   12.4940 C.ar  186  PHE186     -0.0200
    118  CD1      -11.6340   16.7760   13.3590 C.ar  186  PHE186     -0.0042
    119  CD2      -10.2610   14.8350   13.0320 C.ar  186  PHE186     -0.0042
    120  CE1      -11.5250   16.6300   14.7470 C.ar  186  PHE186     -0.0003
    121  CE2      -10.1450   14.6770   14.4140 C.ar  186  PHE186     -0.0003
    122  CZ       -10.7800   15.5780   15.2740 C.ar  186  PHE186     -0.0000
    123  N         -6.4660   20.5260   11.0190 N.3   189  ASN189     -0.1225
    124  CA        -6.3820   21.3900   12.1940 C.3   189  ASN189      0.1785
    125  C         -6.5450   20.6370   13.5100 C.2   189  ASN189      0.2597
    126  O         -6.6730   21.2590   14.5610 O.2   189  ASN189     -0.2718
    127  CB        -7.4370   22.5020   12.1330 C.3   189  ASN189      0.1169
    128  CG        -7.3420   23.3330   10.8650 C.2   189  ASN189      0.2627
    129  OD1       -8.1140   23.1430    9.9290 O.2   189  ASN189     -0.2716
    130  ND2       -6.3890   24.2580   10.8300 N.am  189  ASN189     -0.0877
    131  N         -6.5380   19.3070   13.4540 N.am  190  ASN190     -0.1974
    132  CA        -6.6960   18.4870   14.6560 C.3   190  ASN190      0.1688
    133  C         -5.8640   17.2170   14.5830 C.2   190  ASN190      0.2292
    134  O         -5.6170   16.6860   13.5000 O.2   190  ASN190     -0.2864
    135  CB        -8.1580   18.0830   14.8460 C.3   190  ASN190      0.1181
    136  CG        -9.0740   19.2670   15.0630 C.2   190  ASN190      0.2629
    137  OD1       -8.9600   19.9890   16.0620 O.2   190  ASN190     -0.2716
    138  ND2       -9.9960   19.4720   14.1300 N.am  190  ASN190     -0.0877
    139  N         -4.4170   18.0970  -11.0020 N.3   384  TRP384     -0.1241
    140  CA        -5.1640   17.0080  -11.6130 C.3   384  TRP384      0.1605
    141  C         -5.3800   17.2650  -13.1110 C.2   384  TRP384      0.2264
    142  O         -5.4740   16.3200  -13.8970 O.2   384  TRP384     -0.2867
    143  CB        -6.5250   16.8330  -10.9280 C.3   384  TRP384      0.0550
    144  CG        -6.4760   16.2400   -9.5440 C.ar  384  TRP384      0.0003
    145  CD1       -5.5960   15.3020   -9.0850 C.ar  384  TRP384      0.0946
    146  CD2       -7.4110   16.4670   -8.4770 C.ar  384  TRP384      0.0152
    147  NE1       -5.9260   14.9270   -7.8040 N.ar  384  TRP384     -0.2442
    148  CE2       -7.0360   15.6260   -7.4060 C.ar  384  TRP384      0.0810
    149  CE3       -8.5320   17.2970   -8.3240 C.ar  384  TRP384      0.0012
    150  CZ2       -7.7450   15.5880   -6.1900 C.ar  384  TRP384      0.0191
    151  CZ3       -9.2420   17.2610   -7.1070 C.ar  384  TRP384      0.0001
    152  CH2       -8.8400   16.4100   -6.0610 C.ar  384  TRP384      0.0015
    153  N        -14.1950   19.0990  -14.5600 N.3   547  TRP547     -0.1241
    154  CA       -13.8090   19.9060  -13.3970 C.3   547  TRP547      0.1605
    155  C        -14.5770   21.2040  -13.1750 C.2   547  TRP547      0.2264
    156  O        -15.1290   21.4250  -12.1000 O.2   547  TRP547     -0.2867
    157  CB       -12.3120   20.2220  -13.4390 C.3   547  TRP547      0.0550
    158  CG       -11.8160   20.8920  -12.1920 C.ar  547  TRP547      0.0003
    159  CD1      -11.1600   22.0840  -12.1120 C.ar  547  TRP547      0.0946
    160  CD2      -11.9330   20.4070  -10.8460 C.ar  547  TRP547      0.0152
    161  NE1      -10.8600   22.3750  -10.8010 N.ar  547  TRP547     -0.2442
    162  CE2      -11.3230   21.3620  -10.0030 C.ar  547  TRP547      0.0810
    163  CE3      -12.4920   19.2570  -10.2710 C.ar  547  TRP547      0.0012
    164  CZ2      -11.2570   21.2040   -8.6100 C.ar  547  TRP547      0.0191
    165  CZ3      -12.4270   19.0980   -8.8840 C.ar  547  TRP547      0.0001
    166  CH2      -11.8120   20.0700   -8.0710 C.ar  547  TRP547      0.0015
    167  N        -17.6310   20.7440  -11.2650 N.3   550  ASN550     -0.1240
    168  CA       -17.5800   20.1060   -9.9520 C.3   550  ASN550      0.1653
    169  C        -18.0930   21.0690   -8.8820 C.2   550  ASN550      0.2266
    170  O        -17.6690   22.2200   -8.8150 O.2   550  ASN550     -0.2867
    171  CB       -16.1520   19.6710   -9.6180 C.3   550  ASN550      0.1155
    172  CG       -16.1110   18.6470   -8.5090 C.2   550  ASN550      0.2627
    173  OD1      -16.7800   17.6150   -8.5830 O.2   550  ASN550     -0.2716
    174  ND2      -15.3270   18.9190   -7.4750 N.am  550  ASN550     -0.0877
    175  N        -17.5450   20.9550   -5.7690 N.3   552  TYR552     -0.1228
    176  CA       -16.6320   21.0600   -4.6380 C.3   552  TYR552      0.1721
    177  C        -15.2300   21.4900   -5.0450 C.2   552  TYR552      0.2437
    178  O        -14.8230   21.3460   -6.1980 O.2   552  TYR552     -0.2733
    179  CB       -16.5400   19.7130   -3.9160 C.3   552  TYR552      0.0547
    180  CG       -17.8680   19.1260   -3.4930 C.ar  552  TYR552     -0.0200
    181  CD1      -18.1410   17.7780   -3.6930 C.ar  552  TYR552     -0.0009
    182  CD2      -18.8370   19.9090   -2.8650 C.ar  552  TYR552     -0.0009
    183  CE1      -19.3360   17.2200   -3.2820 C.ar  552  TYR552      0.0417
    184  CE2      -20.0400   19.3580   -2.4440 C.ar  552  TYR552      0.0417
    185  CZ       -20.2830   18.0110   -2.6560 C.ar  552  TYR552      0.1957
    186  OH       -21.4640   17.4440   -2.2330 O.3   552  TYR552     -0.2866
    187  N        -14.4700   22.0410   -4.0940 N.am  553  PRO553     -0.2718
    188  CA       -13.1110   22.4690   -4.4060 C.3   553  PRO553      0.1535
    189  C        -12.1130   21.4210   -3.9100 C.2   553  PRO553      0.2598
    190  O        -12.4540   20.5780   -3.0840 O.2   553  PRO553     -0.2715
    191  CB       -12.9980   23.7750   -3.6430 C.3   553  PRO553      0.0310
    192  CG       -13.7140   23.4340   -2.3680 C.3   553  PRO553      0.0237
    193  CD       -14.9460   22.6760   -2.8490 C.3   553  PRO553      0.0939
    194  N        -10.8890   21.4760   -4.4280 N.am  554  LYS554     -0.1964
    195  CA        -9.8190   20.5660   -4.0260 C.3   554  LYS554      0.1728
    196  C         -9.2620   21.1050   -2.7020 C.2   554  LYS554      0.2616
    197  O         -8.7150   22.2060   -2.6600 O.2   554  LYS554     -0.2715
    198  CB        -8.7390   20.5570   -5.1090 C.3   554  LYS554      0.0311
    199  CG        -7.4820   19.7500   -4.8040 C.3   554  LYS554      0.0038
    200  CD        -6.6190   19.6530   -6.0620 C.3   554  LYS554      0.0206
    201  CE        -5.2650   19.0340   -5.7970 C.3   554  LYS554      0.1093
    202  NZ        -4.3040   20.0130   -5.2280 N.3   554  LYS554     -0.1314
    203  N         -9.4020   20.3290   -1.6280 N.am  555  ILE555     -0.1977
    204  CA        -8.9530   20.7500   -0.2970 C.3   555  ILE555      0.1596
    205  C         -7.5140   20.4190    0.1040 C.2   555  ILE555      0.2287
    206  O         -6.9510   21.0770    0.9810 O.2   555  ILE555     -0.2864
    207  CB        -9.9060   20.1860    0.7960 C.3   555  ILE555      0.0276
    208  CG1      -11.3120   20.7330    0.5700 C.3   555  ILE555      0.0022
    209  CG2       -9.4390   20.5900    2.1830 C.3   555  ILE555      0.0022
    210  CD1      -11.3610   22.2500    0.4850 C.3   555  ILE555      0.0001
@<TRIPOS>BOND
     1   153   154    1
     2   142   141    2
     3   157   154    1
     4   157   158    1
     5   154   155    1
     6   155   156    2
     7   141   140    1
     8   158   159   ar
     9   158   160   ar
    10   159   161   ar
    11   140   139    1
    12   140   143    1
    13   167   168    1
    14   143   144    1
    15   160   163   ar
    16   160   162   ar
    17   161   162   ar
    18   163   165   ar
    19   162   164   ar
    20   168   171    1
    21   168   169    1
    22   171   172    1
    23   144   145   ar
    24   144   146   ar
    25    46    45    2
    26    39    38    2
    27   145   147   ar
    28   165   166   ar
    29   169   170    2
    30    45    44    1
    31   164   166   ar
    32   173   172    2
    33   172   174   am
    34   146   149   ar
    35   146   148   ar
    36   149   151   ar
    37    38    37    1
    38    38    43   am
    39    37    36    1
    40    37    40    1
    41    59    57   ar
    42    59    61   ar
    43   147   148   ar
    44    57    56   ar
    45    44    43    1
    46    44    47    1
    47   148   150   ar
    48   151   152   ar
    49    61    60   ar
    50    40    42    1
    51    40    41    1
    52    56    55    1
    53    56    58   ar
    54    47    48    1
    55    55    52    1
    56   178   177    2
    57   150   152   ar
    58   200   201    1
    59   200   199    1
    60    60    58   ar
    61   201   202    1
    62   175   176    1
    63    52    51    1
    64    52    53    1
    65     1     2    1
    66   198   199    1
    67   198   195    1
    68     9     7   ar
    69   177   176    1
    70   177   187   am
    71    48    50   am
    72    48    49    2
    73   176   179    1
    74     5     2    1
    75     5     6    1
    76   194   195    1
    77   194   189   am
    78   188   187    1
    79   188   189    1
    80   188   191    1
    81     2     3    1
    82    53    54    2
    83   187   193    1
    84   195   196    1
    85     4     3    2
    86   179   180    1
    87   189   190    2
    88     7     6    1
    89     7     8   ar
    90   181   180   ar
    91   181   183   ar
    92   191   192    1
    93   180   182   ar
    94   183   185   ar
    95   182   184   ar
    96   193   192    1
    97    34    33    1
    98    34    35    1
    99   196   197    2
   100   196   203   am
   101    32    33    1
   102    32    29    1
   103   185   184   ar
   104   185   186    1
   105    30    29    1
   106    30    31    2
   107    29    28    1
   108   203   204    1
   109    27    26    1
   110   204   205    1
   111   204   207    1
   112    93    91   ar
   113    92    91   ar
   114   205   206    2
   115    26    25    1
   116    25    24    1
   117   210   208    1
   118    69    67   am
   119    91    90    1
   120   208   207    1
   121    24    23    1
   122   207   209    1
   123    66    67    1
   124    66    63    1
   125    64    65    2
   126    64    63    1
   127    67    68    2
   128    63    62    1
   129    90    87    1
   130    23    20    1
   131    21    20    1
   132    21    22    2
   133    20    19    1
   134    87    86    1
   135    87    88    1
   136    13    12    2
   137    19    12   am
   138    88    89    2
   139    88    94   am
   140    85    82    1
   141    12    11    1
   142    94    95    1
   143    83    82    1
   144    83    84    2
   145    82    81    1
   146    17    16   ar
   147    15    16    1
   148    15    14    1
   149    11    14    1
   150    11    10    1
   151   102   103    1
   152    16    18   ar
   153   108   107   ar
   154   108   110   ar
   155    95    98    1
   156    95    96    1
   157   106   103    1
   158   106   107    1
   159   103   104    1
   160    81    72   am
   161   107   109   ar
   162    98    99    1
   163   110   111   ar
   164    96    97    2
   165    73    72    2
   166    72    71    1
   167   109   111   ar
   168   104   105    2
   169   104   112   am
   170    99   100   ar
   171    99   101   ar
   172   112   113    1
   173    71    70    1
   174    71    74    1
   175   129   128    2
   176    74    75    1
   177   113   114    1
   178   113   116    1
   179   114   115    2
   180   130   128   am
   181   128   127    1
   182   116   117    1
   183   123   124    1
   184    80    78    1
   185    75    76    1
   186    77    78    2
   187    77    76    1
   188    78    79    1
   189   127   124    1
   190   124   125    1
   191   117   119   ar
   192   117   118   ar
   193   119   121   ar
   194   118   120   ar
   195   131   125   am
   196   131   132    1
   197   134   133    2
   198   125   126    2
   199   138   136   am
   200   121   122   ar
   201   133   132    1
   202   132   135    1
   203   120   122   ar
   204   135   136    1
   205   136   137    2
