@<TRIPOS>MOLECULE
tmp/1gw0B02.pdb
 208 203 0 0 0
SMALL
GASTEIGER

@<TRIPOS>ATOM
      1  N         24.0740   25.5160   45.7020 N.3    42  GLU42      -0.1245
      2  CA        24.1390   25.2190   44.2750 C.3    42  GLU42       0.1567
      3  C         25.4250   24.4160   44.0720 C.2    42  GLU42       0.2260
      4  O         26.4960   24.8610   44.4690 O.2    42  GLU42      -0.2867
      5  CB        24.1700   26.5490   43.5100 C.3    42  GLU42       0.0388
      6  CG        24.0840   26.4790   41.9990 C.3    42  GLU42       0.1160
      7  CD        23.6960   27.8290   41.3910 C.2    42  GLU42       0.3649
      8  OE1       23.9080   28.0310   40.1760 O.co2  42  GLU42      -0.2457
      9  OE2       23.1660   28.6900   42.1240 O.co2  42  GLU42      -0.2457
     10  N         25.0750   18.3420   35.5380 N.3    55  GLU55      -0.1231
     11  CA        25.7630   19.6110   35.3950 C.3    55  GLU55       0.1699
     12  C         25.5800   20.5110   36.6120 C.2    55  GLU55       0.2592
     13  O         26.5470   21.0810   37.1190 O.2    55  GLU55      -0.2718
     14  CB        25.2510   20.3230   34.1470 C.3    55  GLU55       0.0402
     15  CG        25.6560   21.7770   34.0370 C.3    55  GLU55       0.1161
     16  CD        25.0160   22.4480   32.8460 C.2    55  GLU55       0.3649
     17  OE1       25.2240   23.6630   32.6610 O.co2  55  GLU55      -0.2457
     18  OE2       24.3050   21.7540   32.0920 O.co2  55  GLU55      -0.2457
     19  N         24.3360   20.6410   37.0710 N.am   56  LYS56      -0.1980
     20  CA        24.0180   21.4890   38.2150 C.3    56  LYS56       0.1596
     21  C         22.7830   21.0370   38.9860 C.2    56  LYS56       0.2287
     22  O         21.7420   20.7280   38.4020 O.2    56  LYS56      -0.2864
     23  CB        23.7930   22.9340   37.7630 C.3    56  LYS56       0.0298
     24  CG        23.5400   23.8960   38.9210 C.3    56  LYS56       0.0038
     25  CD        23.1660   25.2860   38.4410 C.3    56  LYS56       0.0206
     26  CE        24.3230   25.9940   37.7460 C.3    56  LYS56       0.1093
     27  NZ        25.4650   26.2730   38.6590 N.3    56  LYS56      -0.1314
     28  N         20.5170   21.7970   42.8850 N.3    58  MET58      -0.1245
     29  CA        20.3110   22.7350   43.9790 C.3    58  MET58       0.1570
     30  C         19.8170   21.8740   45.1460 C.2    58  MET58       0.2261
     31  O         18.7400   21.2820   45.0970 O.2    58  MET58      -0.2867
     32  CB        19.3090   23.8130   43.5580 C.3    58  MET58       0.0387
     33  CG        19.7450   24.5340   42.2800 C.3    58  MET58       0.0595
     34  SD        18.7060   25.9270   41.7630 S.3    58  MET58      -0.1393
     35  CE        19.8790   26.9060   40.8300 C.3    58  MET58       0.0692
     36  N         22.3830   32.8640   42.0450 N.3    87  THR87      -0.1203
     37  CA        21.5330   33.9250   41.5040 C.3    87  THR87       0.1994
     38  C         20.0600   33.7680   41.8490 C.2    87  THR87       0.2617
     39  O         19.3770   34.7530   42.1220 O.2    87  THR87      -0.2717
     40  CB        21.6180   34.0060   39.9660 C.3    87  THR87       0.1784
     41  OG1       21.2780   32.7290   39.4010 O.3    87  THR87      -0.2211
     42  CG2       23.0140   34.4310   39.5180 C.3    87  THR87       0.0376
     43  N         19.5700   32.5330   41.8220 N.am   88  ASN88      -0.1974
     44  CA        18.1640   32.2450   42.1000 C.3    88  ASN88       0.1688
     45  C         17.6000   32.7480   43.4240 C.2    88  ASN88       0.2292
     46  O         18.2870   32.7620   44.4520 O.2    88  ASN88      -0.2864
     47  CB        17.9030   30.7360   42.0680 C.3    88  ASN88       0.1181
     48  CG        17.7380   30.1860   40.6700 C.2    88  ASN88       0.2629
     49  OD1       17.1650   29.1130   40.5000 O.2    88  ASN88      -0.2716
     50  ND2       18.2470   30.8950   39.6710 N.am   88  ASN88      -0.0877
     51  N          9.7190   28.5450   42.8780 N.3   141  PHE141     -0.1227
     52  CA        10.4470   29.5580   42.1160 C.3   141  PHE141      0.1736
     53  C         10.6240   28.9360   40.7320 C.2   141  PHE141      0.2596
     54  O         11.6190   28.2550   40.4690 O.2   141  PHE141     -0.2718
     55  CB        11.8150   29.8210   42.7620 C.3   141  PHE141      0.0547
     56  CG        12.6080   30.9130   42.0950 C.ar  141  PHE141     -0.0202
     57  CD1       12.2830   32.2520   42.2950 C.ar  141  PHE141     -0.0042
     58  CD2       13.6850   30.6030   41.2660 C.ar  141  PHE141     -0.0042
     59  CE1       13.0250   33.2710   41.6780 C.ar  141  PHE141     -0.0003
     60  CE2       14.4320   31.6090   40.6440 C.ar  141  PHE141     -0.0003
     61  CZ        14.1020   32.9460   40.8500 C.ar  141  PHE141     -0.0000
     62  N          9.6550   29.1670   39.8520 N.am  142  SER142     -0.1952
     63  CA         9.6910   28.5780   38.5150 C.3   142  SER142      0.1924
     64  C          9.7630   27.0710   38.6930 C.2   142  SER142      0.2314
     65  O          9.0780   26.5310   39.5570 O.2   142  SER142     -0.2863
     66  CB        10.8970   29.0840   37.7160 C.3   142  SER142      0.2116
     67  OG        10.6980   30.4360   37.3400 O.3   142  SER142     -0.2180
     68  N         15.5900   20.8520   40.3370 N.3   147  ASN147     -0.1240
     69  CA        17.0240   20.7270   40.5550 C.3   147  ASN147      0.1653
     70  C         17.3210   20.0450   41.8850 C.2   147  ASN147      0.2266
     71  O         18.4750   19.7460   42.1730 O.2   147  ASN147     -0.2867
     72  CB        17.7110   22.0940   40.5330 C.3   147  ASN147      0.1155
     73  CG        17.7260   22.7220   39.1530 C.2   147  ASN147      0.2627
     74  OD1       17.8120   22.0230   38.1390 O.2   147  ASN147     -0.2716
     75  ND2       17.6640   24.0510   39.1070 N.am  147  ASN147     -0.0877
     76  N         19.5190   16.9710   32.5910 N.3   178  ARG178     -0.1231
     77  CA        19.5210   18.4040   32.2770 C.3   178  ARG178      0.1694
     78  C         18.9810   19.2060   33.4680 C.2   178  ARG178      0.2591
     79  O         18.2370   18.6740   34.2920 O.2   178  ARG178     -0.2718
     80  CB        18.6590   18.6830   31.0340 C.3   178  ARG178      0.0321
     81  CG        19.1620   18.0130   29.7540 C.3   178  ARG178      0.0489
     82  CD        18.2890   18.3250   28.5260 C.3   178  ARG178      0.2205
     83  NE        18.4530   19.6980   28.0420 N.pl3 178  ARG178     -0.0865
     84  CZ        17.8880   20.1880   26.9400 C.cat 178  ARG178      0.5346
     85  NH1       17.1100   19.4200   26.1870 N.pl3 178  ARG178      0.1354
     86  NH2       18.1060   21.4480   26.5810 N.pl3 178  ARG178      0.1354
     87  N         19.3600   20.4780   33.5680 N.am  179  ALA179     -0.1980
     88  CA        18.8880   21.3130   34.6720 C.3   179  ALA179      0.1597
     89  C         17.5050   21.8590   34.3290 C.2   179  ALA179      0.2287
     90  O         17.1710   21.9930   33.1560 O.2   179  ALA179     -0.2864
     91  CB        19.8650   22.4620   34.9310 C.3   179  ALA179      0.0319
     92  N         16.0320   24.9260   34.4540 N.3   181  ASP181     -0.1225
     93  CA        15.9450   26.1290   33.6330 C.3   181  ASP181      0.1805
     94  C         16.1860   25.7940   32.1810 C.2   181  ASP181      0.2597
     95  O         15.6140   26.4090   31.2830 O.2   181  ASP181     -0.2718
     96  CB        16.9560   27.1650   34.1040 C.3   181  ASP181      0.1424
     97  CG        16.5810   27.7670   35.4390 C.2   181  ASP181      0.3668
     98  OD1       15.6810   28.6320   35.4670 O.co2 181  ASP181     -0.2456
     99  OD2       17.1740   27.3640   36.4610 O.co2 181  ASP181     -0.2456
    100  N         17.0360   24.8030   31.9540 N.am  182  ASP182     -0.1974
    101  CA        17.3430   24.3820   30.6030 C.3   182  ASP182      0.1709
    102  C         16.1030   23.6900   30.0320 C.2   182  ASP182      0.2293
    103  O         15.7040   23.9430   28.9010 O.2   182  ASP182     -0.2864
    104  CB        18.5590   23.4520   30.6360 C.3   182  ASP182      0.1436
    105  CG        18.9320   22.9210   29.2720 C.2   182  ASP182      0.3671
    106  OD1       18.6290   23.5860   28.2560 O.co2 182  ASP182     -0.2456
    107  OD2       19.5510   21.8350   29.2180 O.co2 182  ASP182     -0.2456
    108  N         13.2450   26.0230   29.1530 N.3   185  HIS185     -0.1226
    109  CA        13.5170   26.6890   27.8860 C.3   185  HIS185      0.1752
    110  C         13.2210   25.7620   26.7060 C.2   185  HIS185      0.2596
    111  O         12.6810   26.1920   25.6870 O.2   185  HIS185     -0.2718
    112  CB        14.9760   27.1350   27.8120 C.3   185  HIS185      0.0759
    113  CG        15.3690   27.6610   26.4680 C.ar  185  HIS185      0.0818
    114  ND1       15.0130   28.9170   26.0270 N.ar  185  HIS185     -0.2268
    115  CD2       16.0290   27.0750   25.4400 C.ar  185  HIS185      0.1154
    116  CE1       15.4340   29.0830   24.7860 C.ar  185  HIS185      0.1986
    117  NE2       16.0530   27.9800   24.4060 N.ar  185  HIS185     -0.2212
    118  N         13.5880   24.4920   26.8580 N.am  186  PHE186     -0.1976
    119  CA        13.3670   23.4860   25.8290 C.3   186  PHE186      0.1639
    120  C         11.8730   23.2240   25.6150 C.2   186  PHE186      0.2290
    121  O         11.4050   23.1490   24.4780 O.2   186  PHE186     -0.2864
    122  CB        14.0690   22.1910   26.2320 C.3   186  PHE186      0.0560
    123  CG        13.8610   21.0590   25.2690 C.ar  186  PHE186     -0.0200
    124  CD1       14.4670   21.0720   24.0140 C.ar  186  PHE186     -0.0042
    125  CD2       13.0570   19.9770   25.6170 C.ar  186  PHE186     -0.0042
    126  CE1       14.2740   20.0150   23.1110 C.ar  186  PHE186     -0.0003
    127  CE2       12.8540   18.9150   24.7250 C.ar  186  PHE186     -0.0003
    128  CZ        13.4640   18.9350   23.4670 C.ar  186  PHE186     -0.0000
    129  N          9.3360   22.8720   22.4790 N.3   190  ASN190     -0.1240
    130  CA         9.4580   21.4560   22.1620 C.3   190  ASN190      0.1653
    131  C          8.6300   20.5940   23.0980 C.2   190  ASN190      0.2266
    132  O          8.3650   20.9770   24.2380 O.2   190  ASN190     -0.2867
    133  CB        10.9280   21.0200   22.2480 C.3   190  ASN190      0.1155
    134  CG        11.8240   21.7700   21.2760 C.2   190  ASN190      0.2627
    135  OD1       11.7090   21.6160   20.0590 O.2   190  ASN190     -0.2716
    136  ND2       12.7190   22.5930   21.8120 N.am  190  ASN190     -0.0877
    137  N          7.3830   38.7910   40.9930 N.3   384  TRP384     -0.1241
    138  CA         8.1540   38.4620   42.1840 C.3   384  TRP384      0.1605
    139  C          8.3980   39.6460   43.1200 C.2   384  TRP384      0.2264
    140  O          8.5310   39.4610   44.3280 O.2   384  TRP384     -0.2867
    141  CB         9.5140   37.8750   41.7990 C.3   384  TRP384      0.0550
    142  CG         9.4760   36.4920   41.2480 C.ar  384  TRP384      0.0003
    143  CD1        8.6400   35.4770   41.6250 C.ar  384  TRP384      0.0946
    144  CD2       10.3920   35.9280   40.3040 C.ar  384  TRP384      0.0152
    145  NE1        8.9870   34.3140   40.9810 N.ar  384  TRP384     -0.2442
    146  CE2       10.0600   34.5620   40.1630 C.ar  384  TRP384      0.0810
    147  CE3       11.4690   36.4450   39.5660 C.ar  384  TRP384      0.0012
    148  CZ2       10.7680   33.7020   39.3110 C.ar  384  TRP384      0.0191
    149  CZ3       12.1730   35.5920   38.7200 C.ar  384  TRP384      0.0001
    150  CH2       11.8180   34.2340   38.6010 C.ar  384  TRP384      0.0015
    151  N         17.2680   41.9750   42.8510 N.3   547  TRP547     -0.1241
    152  CA        16.8640   41.7370   41.4590 C.3   547  TRP547      0.1605
    153  C         17.6170   42.4920   40.3650 C.2   547  TRP547      0.2264
    154  O         18.1150   41.8870   39.4160 O.2   547  TRP547     -0.2867
    155  CB        15.3600   41.9720   41.2830 C.3   547  TRP547      0.0550
    156  CG        14.8610   41.5820   39.9100 C.ar  547  TRP547      0.0003
    157  CD1       14.2290   42.3900   39.0100 C.ar  547  TRP547      0.0946
    158  CD2       14.9830   40.2980   39.2740 C.ar  547  TRP547      0.0152
    159  NE1       13.9540   41.6960   37.8540 N.ar  547  TRP547     -0.2442
    160  CE2       14.4050   40.4110   37.9890 C.ar  547  TRP547      0.0810
    161  CE3       15.5260   39.0660   39.6650 C.ar  547  TRP547      0.0012
    162  CZ2       14.3540   39.3390   37.0910 C.ar  547  TRP547      0.0191
    163  CZ3       15.4750   38.0000   38.7710 C.ar  547  TRP547      0.0001
    164  CH2       14.8920   38.1460   37.4980 C.ar  547  TRP547      0.0015
    165  N         20.6800   40.8820   39.2560 N.3   550  ASN550     -0.1240
    166  CA        20.6230   39.5390   38.6900 C.3   550  ASN550      0.1653
    167  C         21.0320   39.5710   37.2240 C.2   550  ASN550      0.2266
    168  O         20.5180   40.3770   36.4530 O.2   550  ASN550     -0.2867
    169  CB        19.2120   38.9630   38.8230 C.3   550  ASN550      0.1155
    170  CG        19.1930   37.4570   38.7120 C.2   550  ASN550      0.2627
    171  OD1       19.8920   36.7660   39.4520 O.2   550  ASN550     -0.2716
    172  ND2       18.3930   36.9370   37.7890 N.am  550  ASN550     -0.0877
    173  N         20.6110   37.0910   35.0280 N.3   552  TYR552     -0.1228
    174  CA        19.7090   36.3110   34.1880 C.3   552  TYR552      0.1721
    175  C         18.3260   36.9390   34.2170 C.2   552  TYR552      0.2437
    176  O         17.9700   37.6390   35.1640 O.2   552  TYR552     -0.2733
    177  CB        19.6250   34.8670   34.6970 C.3   552  TYR552      0.0547
    178  CG        20.9630   34.1550   34.7870 C.ar  552  TYR552     -0.0200
    179  CD1       21.2710   33.3470   35.8830 C.ar  552  TYR552     -0.0009
    180  CD2       21.9140   34.2730   33.7710 C.ar  552  TYR552     -0.0009
    181  CE1       22.4900   32.6760   35.9670 C.ar  552  TYR552      0.0417
    182  CE2       23.1380   33.6050   33.8450 C.ar  552  TYR552      0.0417
    183  CZ        23.4190   32.8100   34.9460 C.ar  552  TYR552      0.1957
    184  OH        24.6340   32.1650   35.0360 O.3   552  TYR552     -0.2866
    185  N         17.5310   36.7160   33.1660 N.am  553  PRO553     -0.2718
    186  CA        16.1880   37.2880   33.1370 C.3   553  PRO553      0.1535
    187  C         15.1660   36.2260   33.5290 C.2   553  PRO553      0.2598
    188  O         15.4910   35.0440   33.5960 O.2   553  PRO553     -0.2715
    189  CB        16.0420   37.6980   31.6850 C.3   553  PRO553      0.0310
    190  CG        16.6790   36.5240   30.9870 C.3   553  PRO553      0.0237
    191  CD        17.9290   36.2560   31.8230 C.3   553  PRO553      0.0939
    192  N         13.9410   36.6580   33.8040 N.am  554  LYS554     -0.1964
    193  CA        12.8590   35.7430   34.1430 C.3   554  LYS554      0.1728
    194  C         12.1890   35.4310   32.8080 C.2   554  LYS554      0.2616
    195  O         11.5640   36.3050   32.1970 O.2   554  LYS554     -0.2715
    196  CB        11.8770   36.4210   35.0940 C.3   554  LYS554      0.0311
    197  CG        10.5930   35.6550   35.3460 C.3   554  LYS554      0.0038
    198  CD         9.8030   36.3400   36.4400 C.3   554  LYS554      0.0206
    199  CE         8.3940   35.8220   36.5340 C.3   554  LYS554      0.1093
    200  NZ         7.5750   36.3080   35.4030 N.3   554  LYS554     -0.1314
    201  N         12.3270   34.1860   32.3600 N.am  555  ILE555     -0.1977
    202  CA        11.7820   33.7570   31.0710 C.3   555  ILE555      0.1596
    203  C         10.4210   33.0590   31.0910 C.2   555  ILE555      0.2287
    204  O          9.8790   32.7560   30.0320 O.2   555  ILE555     -0.2864
    205  CB        12.7880   32.8280   30.3510 C.3   555  ILE555      0.0276
    206  CG1       12.8840   31.4890   31.0960 C.3   555  ILE555      0.0022
    207  CG2       14.1600   33.5020   30.2970 C.3   555  ILE555      0.0022
    208  CD1       13.9290   30.5270   30.5530 C.3   555  ILE555      0.0001
@<TRIPOS>BOND
     1   135   134    2
     2   134   136   am
     3   134   133    1
     4   130   133    1
     5   130   129    1
     6   130   131    1
     7   131   132    2
     8   126   128   ar
     9   126   124   ar
    10   128   127   ar
    11   124   123   ar
    12   117   116   ar
    13   117   115   ar
    14   121   120    2
    15   127   125   ar
    16   116   114   ar
    17   123   125   ar
    18   123   122    1
    19   115   113   ar
    20   120   119    1
    21   111   110    2
    22   119   122    1
    23   119   118    1
    24   114   113   ar
    25    85    84    1
    26   113   112    1
    27    86    84    1
    28   110   118   am
    29   110   109    1
    30    84    83    2
    31   112   109    1
    32   109   108    1
    33    83    82    1
    34   106   105   ar
    35    82    81    1
    36   103   102    2
    37   107   105   ar
    38   105   104    1
    39    81    80    1
    40   102   101    1
    41   204   203    2
    42   207   205    1
    43   205   202    1
    44   205   206    1
    45   208   206    1
    46   101   104    1
    47   101   100    1
    48   190   189    1
    49   190   191    1
    50    80    77    1
    51   202   203    1
    52   202   201    1
    53    95    94    2
    54   189   186    1
    55   191   185    1
    56   100    94   am
    57    18    16   ar
    58    94    93    1
    59   195   194    2
    60    77    76    1
    61    77    78    1
    62   201   194   am
    63    17    16   ar
    64   194   193    1
    65    16    15    1
    66   186   185    1
    67   186   187    1
    68    90    89    2
    69   185   175   am
    70    78    87   am
    71    78    79    2
    72   187   188    2
    73   187   192   am
    74    87    88    1
    75    93    96    1
    76    93    92    1
    77   180   182   ar
    78   180   178   ar
    79   192   193    1
    80   182   183   ar
    81    15    14    1
    82    96    97    1
    83   193   196    1
    84    14    11    1
    85   174   175    1
    86   174   177    1
    87   174   173    1
    88   175   176    2
    89    89    88    1
    90    88    91    1
    91   177   178    1
    92   178   179   ar
    93   183   184    1
    94   183   181   ar
    95   196   197    1
    96   197   198    1
    97    11    10    1
    98    11    12    1
    99   200   199    1
   100    97    98   ar
   101    97    99   ar
   102   179   181   ar
   103   198   199    1
   104   168   167    2
   105    12    19   am
   106    12    13    2
   107    19    20    1
   108   162   164   ar
   109   162   160   ar
   110   167   166    1
   111    67    66    1
   112   164   163   ar
   113    66    63    1
   114    26    25    1
   115    26    27    1
   116    23    20    1
   117    23    24    1
   118   172   170   am
   119   159   160   ar
   120   159   157   ar
   121   160   158   ar
   122    74    73    2
   123    20    21    1
   124    22    21    2
   125    25    24    1
   126    63    64    1
   127    63    62    1
   128   150   149   ar
   129   150   148   ar
   130   166   169    1
   131   166   165    1
   132    64    65    2
   133   170   169    1
   134   170   171    2
   135   149   147   ar
   136   163   161   ar
   137   157   156   ar
   138    75    73   am
   139    73    72    1
   140   158   161   ar
   141   158   156   ar
   142   148   146   ar
   143    41    40    1
   144   154   153    2
   145    42    40    1
   146   147   144   ar
   147    50    48   am
   148    62    53   am
   149   156   155    1
   150    40    37    1
   151   146   144   ar
   152   146   145   ar
   153     8     7   ar
   154   144   142   ar
   155    68    69    1
   156   153   152    1
   157    54    53    2
   158    49    48    2
   159    72    69    1
   160    69    70    1
   161    60    61   ar
   162    60    58   ar
   163    48    47    1
   164    53    52    1
   165    35    34    1
   166    61    59   ar
   167   145   143   ar
   168   137   138    1
   169   142   143   ar
   170   142   141    1
   171    58    56   ar
   172   155   152    1
   173     7     6    1
   174     7     9   ar
   175   152   151    1
   176    37    38    1
   177    37    36    1
   178    59    57   ar
   179    34    33    1
   180   141   138    1
   181    43    38   am
   182    43    44    1
   183    38    39    2
   184    70    71    2
   185     6     5    1
   186    47    44    1
   187    56    57   ar
   188    56    55    1
   189    44    45    1
   190    52    55    1
   191    52    51    1
   192   138   139    1
   193    33    32    1
   194    28    29    1
   195   139   140    2
   196    45    46    2
   197     5     2    1
   198    32    29    1
   199    29    30    1
   200     3     2    1
   201     3     4    2
   202     2     1    1
   203    31    30    2
