@<TRIPOS>MOLECULE
tmp/1gw0A02.pdb
 99 95 0 0 0
SMALL
GASTEIGER

@<TRIPOS>ATOM
      1  N        -18.7450   -9.9680   13.5580 N.3   213  GLN213     -0.1231
      2  CA       -18.1520  -11.2620   13.8740 C.3   213  GLN213      0.1698
      3  C        -16.6560  -11.3820   13.6140 C.2   213  GLN213      0.2592
      4  O        -16.0730  -10.6070   12.8520 O.2   213  GLN213     -0.2718
      5  CB       -18.9000  -12.3790   13.1440 C.3   213  GLN213      0.0381
      6  CG       -20.1520  -12.8130   13.8900 C.3   213  GLN213      0.0905
      7  CD       -20.8890  -13.9410   13.2150 C.2   213  GLN213      0.2608
      8  OE1      -20.3340  -15.0170   12.9960 O.2   213  GLN213     -0.2717
      9  NE2      -22.1540  -13.7050   12.8850 N.am  213  GLN213     -0.0878
     10  N        -16.0470  -12.3660   14.2680 N.am  214  TYR214     -0.1976
     11  CA       -14.6220  -12.6140   14.1410 C.3   214  TYR214      0.1639
     12  C        -14.2700  -13.2990   12.8260 C.2   214  TYR214      0.2290
     13  O        -15.0100  -14.1540   12.3400 O.2   214  TYR214     -0.2864
     14  CB       -14.1360  -13.4830   15.3040 C.3   214  TYR214      0.0560
     15  CG       -14.2250  -12.8190   16.6610 C.ar  214  TYR214     -0.0198
     16  CD1      -15.0510  -13.3350   17.6650 C.ar  214  TYR214     -0.0009
     17  CD2      -13.4720  -11.6800   16.9490 C.ar  214  TYR214     -0.0009
     18  CE1      -15.1200  -12.7320   18.9240 C.ar  214  TYR214      0.0417
     19  CE2      -13.5340  -11.0710   18.1970 C.ar  214  TYR214      0.0417
     20  CZ       -14.3570  -11.5990   19.1800 C.ar  214  TYR214      0.1957
     21  OH       -14.3990  -10.9920   20.4130 O.3   214  TYR214     -0.2866
     22  N        -12.7650  -15.9200   10.6040 N.3   216  ASN216     -0.1240
     23  CA       -12.5470  -17.3170   10.9470 C.3   216  ASN216      0.1653
     24  C        -11.6430  -18.0750    9.9780 C.2   216  ASN216      0.2266
     25  O        -12.0440  -18.3890    8.8570 O.2   216  ASN216     -0.2867
     26  CB       -13.8920  -18.0330   11.0410 C.3   216  ASN216      0.1155
     27  CG       -13.7920  -19.3530   11.7600 C.2   216  ASN216      0.2627
     28  OD1      -12.7050  -19.9210   11.8870 O.2   216  ASN216     -0.2716
     29  ND2      -14.9300  -19.8540   12.2250 N.am  216  ASN216     -0.0877
     30  N         -9.4730  -21.5110    9.2200 N.3   218  THR218     -0.1218
     31  CA        -9.3810  -22.9170    9.5870 C.3   218  THR218      0.1862
     32  C         -8.0690  -23.5630    9.1580 C.2   218  THR218      0.2287
     33  O         -7.7670  -23.6480    7.9700 O.2   218  THR218     -0.2866
     34  CB       -10.5530  -23.7070    8.9820 C.3   218  THR218      0.1770
     35  OG1      -11.7780  -23.2430    9.5580 O.3   218  THR218     -0.2211
     36  CG2      -10.3990  -25.1990    9.2500 C.3   218  THR218      0.0375
     37  N         -9.0240  -23.6960   19.3490 N.3   285  ASN285     -0.1240
     38  CA        -9.2490  -22.3940   18.7350 C.3   285  ASN285      0.1653
     39  C         -8.2640  -21.4120   19.3370 C.2   285  ASN285      0.2266
     40  O         -8.1860  -21.2650   20.5590 O.2   285  ASN285     -0.2867
     41  CB       -10.6760  -21.9080   18.9870 C.3   285  ASN285      0.1155
     42  CG       -11.7100  -22.7920   18.3310 C.2   285  ASN285      0.2627
     43  OD1      -11.6500  -23.0520   17.1290 O.2   285  ASN285     -0.2716
     44  ND2      -12.6720  -23.2580   19.1180 N.am  285  ASN285     -0.0877
     45  N        -10.1140  -15.5100   14.7300 N.3   309  ILE309     -0.1245
     46  CA        -9.9940  -16.8440   15.2990 C.3   309  ILE309      0.1561
     47  C         -9.4130  -17.8700   14.3330 C.2   309  ILE309      0.2260
     48  O         -9.8380  -17.9720   13.1810 O.2   309  ILE309     -0.2867
     49  CB       -11.3690  -17.3640   15.7610 C.3   309  ILE309      0.0252
     50  CG1      -11.9460  -16.4350   16.8280 C.3   309  ILE309      0.0019
     51  CG2      -11.2360  -18.7910   16.2900 C.3   309  ILE309      0.0019
     52  CD1      -13.3990  -16.7130   17.1560 C.3   309  ILE309      0.0001
     53  N         -9.2370  -21.6270   13.8660 N.3   311  HIS311     -0.1241
     54  CA        -9.8560  -22.8750   14.2850 C.3   311  HIS311      0.1621
     55  C         -9.2190  -24.1320   13.6850 C.2   311  HIS311      0.2264
     56  O         -9.0690  -24.2450   12.4640 O.2   311  HIS311     -0.2867
     57  CB       -11.3370  -22.8240   13.9100 C.3   311  HIS311      0.0745
     58  CG       -12.0530  -24.1250   14.0720 C.ar  311  HIS311      0.0817
     59  ND1      -12.3980  -24.6360   15.3030 N.ar  311  HIS311     -0.2268
     60  CD2      -12.5020  -25.0130   13.1540 C.ar  311  HIS311      0.1154
     61  CE1      -13.0320  -25.7820   15.1370 C.ar  311  HIS311      0.1986
     62  NE2      -13.1090  -26.0330   13.8420 N.ar  311  HIS311     -0.2212
     63  N         -9.2780  -27.7110   12.3440 N.3   313  ALA313     -0.1231
     64  CA       -10.2890  -28.5890   11.7720 C.3   313  ALA313      0.1694
     65  C        -10.4960  -29.8330   12.6380 C.2   313  ALA313      0.2593
     66  O         -9.5930  -30.6580   12.7800 O.2   313  ALA313     -0.2718
     67  CB        -9.8770  -29.0000   10.3650 C.3   313  ALA313      0.0304
     68  N        -11.6860  -29.9640   13.2170 N.am  314  GLY314     -0.1942
     69  CA       -11.9690  -31.1210   14.0470 C.3   314  GLY314      0.2014
     70  C        -12.2270  -30.8140   15.5100 C.2   314  GLY314      0.2639
     71  O        -12.8060  -31.6330   16.2240 O.2   314  GLY314     -0.2714
     72  N        -11.7930  -29.6450   15.9660 N.am  315  ALA315     -0.1963
     73  CA       -12.0020  -29.2540   17.3560 C.3   315  ALA315      0.1713
     74  C        -13.3390  -28.5260   17.4770 C.2   315  ALA315      0.2458
     75  O        -13.9010  -28.0920   16.4740 O.2   315  ALA315     -0.2730
     76  CB       -10.8670  -28.3490   17.8160 C.3   315  ALA315      0.0333
     77  N        -13.8750  -28.3950   18.7050 N.am  316  PRO316     -0.2716
     78  CA       -15.1560  -27.6970   18.8710 C.3   316  PRO316      0.1536
     79  C        -15.0750  -26.2970   18.2580 C.2   316  PRO316      0.2599
     80  O        -13.9830  -25.8140   17.9620 O.2   316  PRO316     -0.2715
     81  CB       -15.3520  -27.6860   20.3890 C.3   316  PRO316      0.0310
     82  CG       -13.9540  -27.7370   20.9210 C.3   316  PRO316      0.0237
     83  CD       -13.3020  -28.7500   20.0120 C.3   316  PRO316      0.0939
     84  N        -16.2160  -25.6430   18.0700 N.am  317  GLY317     -0.1941
     85  CA       -16.1910  -24.3360   17.4410 C.3   317  GLY317      0.2014
     86  C        -16.6860  -23.1320   18.2110 C.2   317  GLY317      0.2639
     87  O        -17.6180  -22.4500   17.7760 O.2   317  GLY317     -0.2714
     88  N        -16.0620  -22.8510   19.3470 N.am  318  GLY318     -0.1939
     89  CA       -16.4690  -21.6940   20.1200 C.3   318  GLY318      0.2014
     90  C        -15.4000  -20.6200   20.0480 C.2   318  GLY318      0.2638
     91  O        -14.6140  -20.5720   19.0980 O.2   318  GLY318     -0.2714
     92  N        -15.3690  -19.7490   21.0480 N.am  319  LEU319     -0.1977
     93  CA       -14.3690  -18.6950   21.0880 C.3   319  LEU319      0.1596
     94  C        -13.1100  -19.2540   21.7440 C.2   319  LEU319      0.2287
     95  O        -13.1890  -20.1110   22.6250 O.2   319  LEU319     -0.2864
     96  CB       -14.8730  -17.4970   21.9040 C.3   319  LEU319      0.0297
     97  CG       -16.0540  -16.6670   21.3950 C.3   319  LEU319      0.0022
     98  CD1      -16.3200  -15.5250   22.3670 C.3   319  LEU319      0.0001
     99  CD2      -15.7430  -16.1210   20.0100 C.3   319  LEU319      0.0001
@<TRIPOS>BOND
     1    33    32    2
     2    25    24    2
     3    34    36    1
     4    34    35    1
     5    34    31    1
     6    32    31    1
     7    30    31    1
     8    24    23    1
     9    67    64    1
    10    22    23    1
    11    23    26    1
    12    26    27    1
    13    27    28    2
    14    27    29   am
    15    64    63    1
    16    64    65    1
    17    13    12    2
    18    56    55    2
    19    65    66    2
    20    65    68   am
    21    12    11    1
    22     4     3    2
    23     9     7   am
    24     8     7    2
    25     5     2    1
    26     5     6    1
    27    60    62   ar
    28    60    58   ar
    29    48    47    2
    30     7     6    1
    31    68    69    1
    32     1     2    1
    33     3     2    1
    34     3    10   am
    35    55    54    1
    36    62    61   ar
    37    53    54    1
    38    57    58    1
    39    57    54    1
    40    69    70    1
    41    58    59   ar
    42    11    10    1
    43    11    14    1
    44    47    46    1
    45    45    46    1
    46    61    59   ar
    47    46    49    1
    48    14    15    1
    49    70    72   am
    50    70    71    2
    51    49    51    1
    52    49    50    1
    53    72    73    1
    54    75    74    2
    55    15    17   ar
    56    15    16   ar
    57    50    52    1
    58    17    19   ar
    59    43    42    2
    60    73    74    1
    61    73    76    1
    62    85    84    1
    63    85    86    1
    64    74    77   am
    65    16    18   ar
    66    87    86    2
    67    80    79    2
    68    84    79   am
    69    19    20   ar
    70    86    88   am
    71    79    78    1
    72    42    41    1
    73    42    44   am
    74    77    78    1
    75    77    83    1
    76    38    41    1
    77    38    39    1
    78    38    37    1
    79    78    81    1
    80    18    20   ar
    81    91    90    2
    82    20    21    1
    83    39    40    2
    84    88    89    1
    85    99    97    1
    86    83    82    1
    87    90    89    1
    88    90    92   am
    89    81    82    1
    90    92    93    1
    91    93    94    1
    92    93    96    1
    93    97    96    1
    94    97    98    1
    95    94    95    2
