@<TRIPOS>MOLECULE
tmp/1gw1A01.pdb
 153 154 0 0 0
SMALL
GASTEIGER

@<TRIPOS>ATOM
      1  N         88.2800   36.6620   -3.3490 N.3   101  HIS101     -0.1241
      2  CA        88.3450   37.5000   -4.5330 C.3   101  HIS101      0.1621
      3  C         89.6990   38.2200   -4.4650 C.2   101  HIS101      0.2264
      4  O         89.7760   39.4550   -4.2860 O.2   101  HIS101     -0.2867
      5  CB        87.1760   38.4880   -4.6130 C.3   101  HIS101      0.0745
      6  CG        85.8760   37.8750   -5.0570 C.ar  101  HIS101      0.0817
      7  ND1       84.9550   37.3750   -4.1630 N.ar  101  HIS101     -0.2268
      8  CD2       85.3190   37.7390   -6.2830 C.ar  101  HIS101      0.1154
      9  CE1       83.8880   36.9570   -4.8200 C.ar  101  HIS101      0.1986
     10  NE2       84.0840   37.1590   -6.1110 N.ar  101  HIS101     -0.2212
     11  N         88.7730   40.4260  -11.2710 N.3   120  TRP120     -0.1241
     12  CA        88.1170   40.5350  -12.5880 C.3   120  TRP120      0.1605
     13  C         89.0320   40.9730  -13.7350 C.2   120  TRP120      0.2264
     14  O         88.5770   41.0800  -14.8870 O.2   120  TRP120     -0.2867
     15  CB        86.9230   41.4670  -12.4840 C.3   120  TRP120      0.0550
     16  CG        85.8690   40.9750  -11.5590 C.ar  120  TRP120      0.0003
     17  CD1       84.8460   40.1170  -11.8630 C.ar  120  TRP120      0.0946
     18  CD2       85.7620   41.2430  -10.1590 C.ar  120  TRP120      0.0152
     19  NE1       84.0920   39.8820  -10.7430 N.ar  120  TRP120     -0.2442
     20  CE2       84.6360   40.5410   -9.6820 C.ar  120  TRP120      0.0810
     21  CE3       86.4930   42.0100   -9.2610 C.ar  120  TRP120      0.0012
     22  CZ2       84.2300   40.5860   -8.3530 C.ar  120  TRP120      0.0191
     23  CZ3       86.1020   42.0420   -7.9340 C.ar  120  TRP120      0.0001
     24  CH2       84.9800   41.3340   -7.4910 C.ar  120  TRP120      0.0015
     25  N         86.9710   29.1250    1.0080 N.3   166  ARG166     -0.1245
     26  CA        86.6170   28.7320   -0.3480 C.3   166  ARG166      0.1563
     27  C         87.5730   29.4220   -1.3070 C.2   166  ARG166      0.2260
     28  O         87.5200   30.6390   -1.4630 O.2   166  ARG166     -0.2867
     29  CB        85.1780   29.1170   -0.6000 C.3   166  ARG166      0.0307
     30  CG        84.6290   28.6530   -1.9340 C.3   166  ARG166      0.0489
     31  CD        83.1310   28.5970   -1.9390 C.3   166  ARG166      0.2205
     32  NE        82.5440   29.9280   -1.7660 N.pl3 166  ARG166     -0.0865
     33  CZ        82.0460   30.6700   -2.7340 C.cat 166  ARG166      0.5346
     34  NH1       82.0210   30.2380   -3.9820 N.pl3 166  ARG166      0.1354
     35  NH2       81.5460   31.8680   -2.4560 N.pl3 166  ARG166      0.1354
     36  N         87.3090   30.2130   -6.5340 N.3   169  HIS169     -0.1241
     37  CA        85.9760   29.7600   -6.9700 C.3   169  HIS169      0.1621
     38  C         85.6590   30.1110   -8.4310 C.2   169  HIS169      0.2264
     39  O         86.3290   30.9280   -9.0680 O.2   169  HIS169     -0.2867
     40  CB        84.8730   30.3160   -6.0190 C.3   169  HIS169      0.0745
     41  CG        84.6180   31.7770   -6.1980 C.ar  169  HIS169      0.0817
     42  ND1       85.6170   32.7260   -6.0940 N.ar  169  HIS169     -0.2268
     43  CD2       83.4830   32.4530   -6.4810 C.ar  169  HIS169      0.1154
     44  CE1       85.1110   33.9200   -6.3440 C.ar  169  HIS169      0.1986
     45  NE2       83.8220   33.7800   -6.5930 N.ar  169  HIS169     -0.2212
     46  N         86.1910   34.5570  -16.1110 N.3   175  TRP175     -0.1227
     47  CA        86.0880   35.9300  -15.6730 C.3   175  TRP175      0.1737
     48  C         87.0120   36.3000  -14.5250 C.2   175  TRP175      0.2595
     49  O         87.1260   37.4750  -14.2100 O.2   175  TRP175     -0.2718
     50  CB        84.6650   36.2950  -15.3270 C.3   175  TRP175      0.0564
     51  CG        83.9840   35.3990  -14.3790 C.ar  175  TRP175      0.0003
     52  CD1       84.0310   35.4610  -13.0090 C.ar  175  TRP175      0.0946
     53  CD2       83.0880   34.3360  -14.7000 C.ar  175  TRP175      0.0152
     54  NE1       83.2220   34.4920  -12.4680 N.ar  175  TRP175     -0.2442
     55  CE2       82.6340   33.7800  -13.4800 C.ar  175  TRP175      0.0810
     56  CE3       82.6390   33.7700  -15.8990 C.ar  175  TRP175      0.0012
     57  CZ2       81.7370   32.7100  -13.4310 C.ar  175  TRP175      0.0191
     58  CZ3       81.7470   32.7150  -15.8470 C.ar  175  TRP175      0.0001
     59  CH2       81.3210   32.1850  -14.6200 C.ar  175  TRP175      0.0015
     60  N         87.6930   35.3120  -13.9390 N.am  176  PHE176     -0.1976
     61  CA        88.7430   35.5950  -12.9540 C.3   176  PHE176      0.1639
     62  C         90.1240   35.1800  -13.4980 C.2   176  PHE176      0.2290
     63  O         90.2200   34.3230  -14.3720 O.2   176  PHE176     -0.2864
     64  CB        88.4950   34.8110  -11.6660 C.3   176  PHE176      0.0560
     65  CG        87.2350   35.1960  -10.9270 C.ar  176  PHE176     -0.0200
     66  CD1       86.9150   36.5300  -10.6850 C.ar  176  PHE176     -0.0042
     67  CD2       86.3900   34.2110  -10.4140 C.ar  176  PHE176     -0.0042
     68  CE1       85.7970   36.8530   -9.9720 C.ar  176  PHE176     -0.0003
     69  CE2       85.2560   34.5500   -9.7240 C.ar  176  PHE176     -0.0003
     70  CZ        84.9660   35.8600   -9.4830 C.ar  176  PHE176     -0.0000
     71  N         78.9000   26.8340   -7.6950 N.3   241  ASP241     -0.1239
     72  CA        78.2260   28.1310   -7.7770 C.3   241  ASP241      0.1674
     73  C         77.2880   28.1290   -8.9660 C.2   241  ASP241      0.2266
     74  O         77.6400   27.6600  -10.0330 O.2   241  ASP241     -0.2867
     75  CB        79.2280   29.2550   -8.0430 C.3   241  ASP241      0.1410
     76  CG        80.1940   29.4980   -6.9250 C.2   241  ASP241      0.3668
     77  OD1       80.1420   28.8120   -5.8810 O.co2 241  ASP241     -0.2456
     78  OD2       81.0550   30.4120   -7.0090 O.co2 241  ASP241     -0.2456
     79  N         74.1760   30.7080  -11.0200 N.3   243  TYR243     -0.1241
     80  CA        73.2750   31.8470  -11.1340 C.3   243  TYR243      0.1605
     81  C         72.3940   31.6290  -12.3430 C.2   243  TYR243      0.2264
     82  O         72.8960   31.2360  -13.3850 O.2   243  TYR243     -0.2867
     83  CB        74.0590   33.1620  -11.2350 C.3   243  TYR243      0.0534
     84  CG        74.5800   33.5960   -9.8800 C.ar  243  TYR243     -0.0201
     85  CD1       75.7770   33.1110   -9.4070 C.ar  243  TYR243     -0.0009
     86  CD2       73.8430   34.4330   -9.0560 C.ar  243  TYR243     -0.0009
     87  CE1       76.2480   33.4680   -8.1660 C.ar  243  TYR243      0.0417
     88  CE2       74.3010   34.7870   -7.8030 C.ar  243  TYR243      0.0417
     89  CZ        75.5080   34.3040   -7.3680 C.ar  243  TYR243      0.1957
     90  OH        76.0140   34.6240   -6.1200 O.3   243  TYR243     -0.2866
     91  N         77.2000   29.1020   -3.7050 N.3   278  GLU278     -0.1245
     92  CA        76.6230   30.3770   -4.1260 C.3   278  GLU278      0.1567
     93  C         75.4910   30.0630   -5.0820 C.2   278  GLU278      0.2260
     94  O         75.6970   29.3130   -6.0310 O.2   278  GLU278     -0.2867
     95  CB        77.6680   31.1500   -4.9150 C.3   278  GLU278      0.0388
     96  CG        78.0860   32.4870   -4.3790 C.3   278  GLU278      0.1160
     97  CD        78.9840   33.2200   -5.3580 C.2   278  GLU278      0.3649
     98  OE1       80.0650   32.7460   -5.5750 O.co2 278  GLU278     -0.2457
     99  OE2       78.5430   34.3630   -5.9280 O.co2 278  GLU278     -0.2457
    100  N         72.6490   38.5180  -11.3020 N.3   283  ALA283     -0.1245
    101  CA        72.6660   39.9150  -10.8950 C.3   283  ALA283      0.1562
    102  C         72.0400   40.8340  -11.9450 C.2   283  ALA283      0.2260
    103  O         71.2710   41.6950  -11.5720 O.2   283  ALA283     -0.2867
    104  CB        74.0820   40.3730  -10.5860 C.3   283  ALA283      0.0290
    105  N         73.9240   35.5860   -2.1650 N.3   318  TRP318     -0.1227
    106  CA        74.8690   36.6960   -2.1120 C.3   318  TRP318      0.1737
    107  C         74.3350   37.9470   -1.3800 C.2   318  TRP318      0.2595
    108  O         73.2370   37.9450   -0.8150 O.2   318  TRP318     -0.2718
    109  CB        75.3670   37.0080   -3.5430 C.3   318  TRP318      0.0564
    110  CG        76.7980   37.5920   -3.5660 C.ar  318  TRP318      0.0003
    111  CD1       77.1760   38.8420   -4.0000 C.ar  318  TRP318      0.0946
    112  CD2       77.9860   36.9550   -3.1300 C.ar  318  TRP318      0.0152
    113  NE1       78.5230   39.0180   -3.8320 N.ar  318  TRP318     -0.2442
    114  CE2       79.0520   37.8700   -3.3080 C.ar  318  TRP318      0.0810
    115  CE3       78.2740   35.6900   -2.5980 C.ar  318  TRP318      0.0012
    116  CZ2       80.3660   37.5500   -2.9910 C.ar  318  TRP318      0.0191
    117  CZ3       79.5780   35.3790   -2.2980 C.ar  318  TRP318      0.0001
    118  CH2       80.5990   36.3110   -2.4810 C.ar  318  TRP318      0.0015
    119  N         75.1420   39.0110   -1.3880 N.am  319  ARG319     -0.1980
    120  CA        74.9770   40.1260   -0.4740 C.3   319  ARG319      0.1597
    121  C         73.7760   41.0190   -0.7880 C.2   319  ARG319      0.2287
    122  O         73.3820   41.1490   -1.9150 O.2   319  ARG319     -0.2864
    123  CB        76.2500   40.9740   -0.4430 C.3   319  ARG319      0.0334
    124  CG        76.5430   41.7310   -1.7010 C.3   319  ARG319      0.0492
    125  CD        77.9750   42.2130   -1.7790 C.3   319  ARG319      0.2205
    126  NE        78.1650   43.0630   -2.9400 N.pl3 319  ARG319     -0.0865
    127  CZ        77.9470   44.3780   -2.9680 C.cat 319  ARG319      0.5346
    128  NH1       77.5660   45.0460   -1.8920 N.pl3 319  ARG319      0.1354
    129  NH2       78.1490   45.0400   -4.0990 N.pl3 319  ARG319      0.1354
    130  N         70.6980   45.2910   -6.0030 N.3   331  HIS331     -0.1241
    131  CA        71.6910   44.2160   -6.0400 C.3   331  HIS331      0.1621
    132  C         71.6050   43.5440   -4.6910 C.2   331  HIS331      0.2264
    133  O         72.3250   43.8870   -3.7530 O.2   331  HIS331     -0.2867
    134  CB        73.0680   44.8010   -6.2890 C.3   331  HIS331      0.0745
    135  CG        74.1690   43.7920   -6.5210 C.ar  331  HIS331      0.0817
    136  ND1       74.6030   43.4300   -7.7800 N.ar  331  HIS331     -0.2268
    137  CD2       74.9990   43.1740   -5.6480 C.ar  331  HIS331      0.1154
    138  CE1       75.6390   42.6090   -7.6710 C.ar  331  HIS331      0.1986
    139  NE2       75.8920   42.4290   -6.3850 N.ar  331  HIS331     -0.2212
    140  N         69.7540   39.6990   -2.6390 N.3   333  TRP333     -0.1241
    141  CA        69.1530   38.3690   -2.8070 C.3   333  TRP333      0.1605
    142  C         68.1870   37.8970   -1.7260 C.2   333  TRP333      0.2264
    143  O         67.3310   37.0530   -2.0090 O.2   333  TRP333     -0.2867
    144  CB        70.2550   37.3150   -3.0230 C.3   333  TRP333      0.0550
    145  CG        70.8200   37.3320   -4.4040 C.ar  333  TRP333      0.0003
    146  CD1       70.4370   36.5450   -5.4420 C.ar  333  TRP333      0.0946
    147  CD2       71.8230   38.2200   -4.9330 C.ar  333  TRP333      0.0152
    148  NE1       71.1460   36.8590   -6.5700 N.ar  333  TRP333     -0.2442
    149  CE2       72.0140   37.8760   -6.2860 C.ar  333  TRP333      0.0810
    150  CE3       72.5930   39.2560   -4.3980 C.ar  333  TRP333      0.0012
    151  CZ2       72.9200   38.5290   -7.1110 C.ar  333  TRP333      0.0191
    152  CZ3       73.5080   39.9040   -5.2280 C.ar  333  TRP333      0.0001
    153  CH2       73.6580   39.5370   -6.5680 C.ar  333  TRP333      0.0015
@<TRIPOS>BOND
     1    46    47    1
     2    56    58   ar
     3    56    53   ar
     4    58    59   ar
     5    47    50    1
     6    47    48    1
     7    50    51    1
     8    14    13    2
     9    53    51   ar
    10    53    55   ar
    11    59    57   ar
    12    48    49    2
    13    48    60   am
    14    51    52   ar
    15    63    62    2
    16    60    61    1
    17    13    12    1
    18    62    61    1
    19    55    57   ar
    20    55    54   ar
    21    82    81    2
    22    52    54   ar
    23    61    64    1
    24    12    15    1
    25    12    11    1
    26    15    16    1
    27    81    80    1
    28   102   103    2
    29   102   101    1
    30    17    16   ar
    31    17    19   ar
    32    64    65    1
    33    16    18   ar
    34   100   101    1
    35    83    80    1
    36    83    84    1
    37    80    79    1
    38    65    66   ar
    39    65    67   ar
    40   101   104    1
    41    19    20   ar
    42    66    68   ar
    43    67    69   ar
    44    18    20   ar
    45    18    21   ar
    46    74    73    2
    47    68    70   ar
    48    84    85   ar
    49    84    86   ar
    50    69    70   ar
    51    20    22   ar
    52    85    87   ar
    53    21    23   ar
    54    39    38    2
    55    86    88   ar
    56    73    72    1
    57    38    37    1
    58    22    24   ar
    59    87    89   ar
    60    75    72    1
    61    75    76    1
    62    23    24   ar
    63    88    89   ar
    64   136   138   ar
    65   136   135   ar
    66    72    71    1
    67   138   139   ar
    68    89    90    1
    69   151   153   ar
    70   151   149   ar
    71    78    76   ar
    72    37    36    1
    73    37    40    1
    74    76    77   ar
    75    45    43   ar
    76    45    44   ar
    77   148   149   ar
    78   148   146   ar
    79   153   152   ar
    80   135   134    1
    81   135   137   ar
    82    43    41   ar
    83   139   137   ar
    84    44    42   ar
    85   134   131    1
    86   149   147   ar
    87     8    10   ar
    88     8     6   ar
    89    41    42   ar
    90    41    40    1
    91    10     9   ar
    92   131   130    1
    93   131   132    1
    94    94    93    2
    95    99    97   ar
    96    98    97   ar
    97   146   145   ar
    98    97    96    1
    99   152   150   ar
   100    93    92    1
   101     6     5    1
   102     6     7   ar
   103   147   145   ar
   104   147   150   ar
   105    95    96    1
   106    95    92    1
   107     9     7   ar
   108   132   133    2
   109     5     2    1
   110     2     3    1
   111     2     1    1
   112     3     4    2
   113   145   144    1
   114    92    91    1
   115   129   127    1
   116   111   113   ar
   117   111   110   ar
   118    34    33    1
   119   113   114   ar
   120   110   109    1
   121   110   112   ar
   122   109   106    1
   123   114   112   ar
   124   114   116   ar
   125   112   115   ar
   126   144   141    1
   127   116   118   ar
   128   127   126    2
   129   127   128    1
   130   126   125    1
   131   141   140    1
   132   141   142    1
   133    33    35    1
   134    33    32    2
   135   115   117   ar
   136   118   117   ar
   137   105   106    1
   138   106   107    1
   139   143   142    2
   140    31    30    1
   141    31    32    1
   142    30    29    1
   143   122   121    2
   144   125   124    1
   145   124   123    1
   146    28    27    2
   147   119   107   am
   148   119   120    1
   149   107   108    2
   150    27    26    1
   151   121   120    1
   152    29    26    1
   153   120   123    1
   154    26    25    1
