@<TRIPOS>MOLECULE
tmp/1gw6A00.pdb
 192 183 0 0 0
SMALL
GASTEIGER

@<TRIPOS>ATOM
      1  N         35.6640   -2.4800   -8.4470 N.3   134  GLN134     -0.1245
      2  CA        35.0960   -1.8540   -7.2450 C.3   134  GLN134      0.1566
      3  C         33.9370   -2.7780   -6.8470 C.2   134  GLN134      0.2260
      4  O         32.7970   -2.5950   -7.2870 O.2   134  GLN134     -0.2867
      5  CB        34.5950   -0.4280   -7.5570 C.3   134  GLN134      0.0367
      6  CG        33.8280    0.2600   -6.4280 C.3   134  GLN134      0.0905
      7  CD        34.5150    0.1080   -5.0770 C.2   134  GLN134      0.2608
      8  OE1       35.6810    0.5030   -4.8860 O.2   134  GLN134     -0.2717
      9  NE2       33.7990   -0.4800   -4.1320 N.am  134  GLN134     -0.0878
     10  N         32.6420   -3.4990   -3.5980 N.3   136  GLN136     -0.1231
     11  CA        31.7410   -3.1050   -2.5200 C.3   136  GLN136      0.1698
     12  C         30.6580   -2.2360   -3.1380 C.2   136  GLN136      0.2592
     13  O         30.9730   -1.3690   -3.9450 O.2   136  GLN136     -0.2718
     14  CB        32.4810   -2.3260   -1.4140 C.3   136  GLN136      0.0381
     15  CG        31.6310   -2.1520   -0.1490 C.3   136  GLN136      0.0905
     16  CD        32.3860   -1.5200    1.0010 C.2   136  GLN136      0.2608
     17  OE1       33.4000   -0.8660    0.7970 O.2   136  GLN136     -0.2717
     18  NE2       31.8840   -1.7060    2.2230 N.am  136  GLN136     -0.0878
     19  N         29.3910   -2.4580   -2.7800 N.am  137  ALA137     -0.1980
     20  CA        28.9600   -3.4780   -1.8190 C.3   137  ALA137      0.1597
     21  C         28.7220   -4.8680   -2.3860 C.2   137  ALA137      0.2287
     22  O         29.3260   -5.8370   -1.9290 O.2   137  ALA137     -0.2864
     23  CB        27.6500   -2.9970   -1.0940 C.3   137  ALA137      0.0319
     24  N         34.9770    6.5730   -5.4850 N.3   267  TYR267     -0.1227
     25  CA        35.0660    6.9450   -4.0760 C.3   267  TYR267      0.1736
     26  C         36.3660    7.6950   -3.7360 C.2   267  TYR267      0.2596
     27  O         37.2980    7.7550   -4.5430 O.2   267  TYR267     -0.2718
     28  CB        34.9500    5.6760   -3.2310 C.3   267  TYR267      0.0548
     29  CG        33.6350    4.9380   -3.4320 C.ar  267  TYR267     -0.0200
     30  CD1       32.4830    5.3330   -2.7510 C.ar  267  TYR267     -0.0009
     31  CD2       33.5300    3.8800   -4.3420 C.ar  267  TYR267     -0.0009
     32  CE1       31.2540    4.7010   -2.9740 C.ar  267  TYR267      0.0417
     33  CE2       32.2960    3.2310   -4.5720 C.ar  267  TYR267      0.0417
     34  CZ        31.1660    3.6580   -3.8800 C.ar  267  TYR267      0.1957
     35  OH        29.9520    3.0620   -4.0910 O.3   267  TYR267     -0.2866
     36  N         36.4230    8.2910   -2.5540 N.am  268  GLY268     -0.1942
     37  CA        37.6430    8.9560   -2.1520 C.3   268  GLY268      0.2014
     38  C         38.6730    7.8680   -1.8270 C.2   268  GLY268      0.2639
     39  O         39.8660    8.0030   -2.1370 O.2   268  GLY268     -0.2714
     40  N         38.1980    6.7770   -1.2210 N.am  269  GLY269     -0.1939
     41  CA        39.0630    5.6670   -0.8390 C.3   269  GLY269      0.2014
     42  C         38.2860    4.3590   -0.7060 C.2   269  GLY269      0.2639
     43  O         37.0770    4.3780   -0.4880 O.2   269  GLY269     -0.2714
     44  N         38.9800    3.2320   -0.8510 N.am  270  MET270     -0.1963
     45  CA        38.3950    1.8920   -0.7450 C.3   270  MET270      0.1736
     46  C         39.4680    0.9970   -0.0760 C.2   270  MET270      0.2616
     47  O         40.5540    0.7670   -0.6390 O.2   270  MET270     -0.2715
     48  CB        38.0330    1.3600   -2.1430 C.3   270  MET270      0.0427
     49  CG        37.4750   -0.0660   -2.1570 C.3   270  MET270      0.0599
     50  SD        35.9760   -0.2080   -1.1450 S.3   270  MET270     -0.1393
     51  CE        36.3810   -1.7140   -0.1360 C.3   270  MET270      0.0692
     52  N         39.1420    0.4930    1.1120 N.am  271  GLU271     -0.1977
     53  CA        40.0430   -0.3110    1.9390 C.3   271  GLU271      0.1602
     54  C         40.4050   -1.7340    1.4720 C.2   271  GLU271      0.2287
     55  O         40.4770   -2.6610    2.2970 O.2   271  GLU271     -0.2864
     56  CB        39.4600   -0.3870    3.3590 C.3   271  GLU271      0.0415
     57  CG        38.1780   -1.2780    3.4920 C.3   271  GLU271      0.1163
     58  CD        36.8550   -0.5620    3.1820 C.2   271  GLU271      0.3649
     59  OE1       36.8620    0.4770    2.4750 O.co2 271  GLU271     -0.2457
     60  OE2       35.7910   -1.0600    3.6360 O.co2 271  GLU271     -0.2457
     61  N         42.9710   12.6140    5.7380 N.3   291  ASN291     -0.1225
     62  CA        42.1140   11.8990    6.6820 C.3   291  ASN291      0.1785
     63  C         41.5700   10.6890    5.9270 C.2   291  ASN291      0.2597
     64  O         41.2020    9.6810    6.5210 O.2   291  ASN291     -0.2718
     65  CB        40.9380   12.7670    7.1720 C.3   291  ASN291      0.1169
     66  CG        39.9590   13.0760    6.0570 C.2   291  ASN291      0.2627
     67  OD1       40.2670   13.8560    5.1620 O.2   291  ASN291     -0.2716
     68  ND2       38.7920   12.4340    6.0810 N.am  291  ASN291     -0.0877
     69  N         41.5230   10.7880    4.6080 N.am  292  VAL292     -0.1980
     70  CA        41.0300    9.6810    3.8160 C.3   292  VAL292      0.1595
     71  C         41.9450    8.4760    3.9530 C.2   292  VAL292      0.2287
     72  O         41.4700    7.3640    4.0020 O.2   292  VAL292     -0.2864
     73  CB        40.8540   10.0700    2.3260 C.3   292  VAL292      0.0276
     74  CG1       40.4490    8.8470    1.5020 C.3   292  VAL292      0.0022
     75  CG2       39.7640   11.1410    2.2170 C.3   292  VAL292      0.0022
     76  N         41.3900    6.9710    7.4080 N.3   295  HIS295     -0.1226
     77  CA        40.1400    6.2410    7.3880 C.3   295  HIS295      0.1752
     78  C         40.3400    4.8510    6.7390 C.2   295  HIS295      0.2595
     79  O         40.0210    3.8260    7.3430 O.2   295  HIS295     -0.2718
     80  CB        39.1020    7.0370    6.5780 C.3   295  HIS295      0.0759
     81  CG        37.8110    6.3080    6.3860 C.ar  295  HIS295      0.0818
     82  ND1       36.7270    6.4750    7.2280 N.ar  295  HIS295     -0.2268
     83  CD2       37.4560    5.3480    5.5000 C.ar  295  HIS295      0.1154
     84  CE1       35.7620    5.6500    6.8670 C.ar  295  HIS295      0.1986
     85  NE2       36.1800    4.9540    5.8250 N.ar  295  HIS295     -0.2212
     86  N         40.8470    4.8010    5.5040 N.am  296  GLU296     -0.1979
     87  CA        41.0080    3.4860    4.8830 C.3   296  GLU296      0.1602
     88  C         41.9370    2.5840    5.7000 C.2   296  GLU296      0.2287
     89  O         41.7380    1.3710    5.7540 O.2   296  GLU296     -0.2864
     90  CB        41.5270    3.6100    3.4480 C.3   296  GLU296      0.0415
     91  CG        40.6830    4.4710    2.5170 C.3   296  GLU296      0.1163
     92  CD        39.1780    4.2130    2.6040 C.2   296  GLU296      0.3649
     93  OE1       38.7750    3.0780    2.9000 O.co2 296  GLU296     -0.2457
     94  OE2       38.3900    5.1520    2.3530 O.co2 296  GLU296     -0.2457
     95  N         40.0820    0.7740    8.4930 N.3   299  HIS299     -0.1241
     96  CA        39.2960   -0.3960    8.0850 C.3   299  HIS299      0.1621
     97  C         40.1050   -1.6990    8.1820 C.2   299  HIS299      0.2264
     98  O         39.5290   -2.7940    8.1620 O.2   299  HIS299     -0.2867
     99  CB        38.7910   -0.2560    6.6500 C.3   299  HIS299      0.0745
    100  CG        37.5110    0.5000    6.5360 C.ar  299  HIS299      0.0817
    101  ND1       36.3530    0.1010    7.1690 N.ar  299  HIS299     -0.2268
    102  CD2       37.1960    1.6210    5.8460 C.ar  299  HIS299      0.1154
    103  CE1       35.3790    0.9430    6.8740 C.ar  299  HIS299      0.1986
    104  NE2       35.8640    1.8720    6.0740 N.ar  299  HIS299     -0.2212
    105  N         25.9200   -1.9620    7.9190 N.3   314  PHE314     -0.1241
    106  CA        27.0130   -1.1880    7.3410 C.3   314  PHE314      0.1605
    107  C         27.5930   -0.1650    8.3400 C.2   314  PHE314      0.2264
    108  O         28.8120    0.0440    8.3700 O.2   314  PHE314     -0.2867
    109  CB        26.4760   -0.4870    6.0780 C.3   314  PHE314      0.0534
    110  CG        27.5070    0.2740    5.3030 C.ar  314  PHE314     -0.0203
    111  CD1       28.6700   -0.3490    4.8630 C.ar  314  PHE314     -0.0042
    112  CD2       27.2770    1.5960    4.9340 C.ar  314  PHE314     -0.0042
    113  CE1       29.5890    0.3210    4.0630 C.ar  314  PHE314     -0.0003
    114  CE2       28.1940    2.2810    4.1300 C.ar  314  PHE314     -0.0003
    115  CZ        29.3530    1.6410    3.6900 C.ar  314  PHE314     -0.0000
    116  N         31.6110    1.5210    8.8460 N.3   318  GLU318     -0.1245
    117  CA        31.9270    2.9410    8.7330 C.3   318  GLU318      0.1567
    118  C         31.9120    3.7610   10.0160 C.2   318  GLU318      0.2260
    119  O         32.7700    4.6220   10.2150 O.2   318  GLU318     -0.2867
    120  CB        31.0140    3.5750    7.6670 C.3   318  GLU318      0.0388
    121  CG        31.0890    2.8460    6.3020 C.3   318  GLU318      0.1160
    122  CD        32.4840    2.9060    5.6850 C.2   318  GLU318      0.3649
    123  OE1       33.2710    3.7600    6.1230 O.co2 318  GLU318     -0.2457
    124  OE2       32.7940    2.1220    4.7650 O.co2 318  GLU318     -0.2457
    125  N         35.2100    5.7670   11.1080 N.3   322  VAL322     -0.1245
    126  CA        35.2580    7.2270   11.1660 C.3   322  VAL322      0.1561
    127  C         35.7220    7.6260   12.5750 C.2   322  VAL322      0.2260
    128  O         36.4690    8.5890   12.7490 O.2   322  VAL322     -0.2867
    129  CB        33.8760    7.8700   10.8570 C.3   322  VAL322      0.0252
    130  CG1       33.8860    9.3570   11.2290 C.3   322  VAL322      0.0019
    131  CG2       33.5630    7.7190    9.3540 C.3   322  VAL322      0.0019
    132  N         39.4130    6.9310   12.6780 N.3   325  GLU325     -0.1245
    133  CA        39.9750    7.9470   11.7970 C.3   325  GLU325      0.1567
    134  C         40.1840    9.2570   12.5570 C.2   325  GLU325      0.2260
    135  O         41.2760    9.8390   12.5650 O.2   325  GLU325     -0.2867
    136  CB        39.0050    8.1890   10.6390 C.3   325  GLU325      0.0388
    137  CG        39.3910    9.3140    9.6900 C.3   325  GLU325      0.1160
    138  CD        38.2080    9.8040    8.8470 C.2   325  GLU325      0.3649
    139  OE1       37.2230    9.0330    8.6520 O.co2 325  GLU325     -0.2457
    140  OE2       38.2690   10.9600    8.3680 O.co2 325  GLU325     -0.2457
    141  N         23.6190    0.9120   -3.4850 N.3   375  ASN375     -0.1240
    142  CA        24.1770    2.1220   -4.0810 C.3   375  ASN375      0.1653
    143  C         23.2280    3.2940   -3.9590 C.2   375  ASN375      0.2266
    144  O         23.6680    4.4440   -3.9160 O.2   375  ASN375     -0.2867
    145  CB        24.5190    1.9160   -5.5550 C.3   375  ASN375      0.1155
    146  CG        25.8560    1.2090   -5.7480 C.2   375  ASN375      0.2627
    147  OD1       25.9210    0.0990   -6.2980 O.2   375  ASN375     -0.2716
    148  ND2       26.9280    1.8540   -5.3040 N.am  375  ASN375     -0.0877
    149  N         23.0470    4.3860   -0.0270 N.3   378  TYR378     -0.1241
    150  CA        24.3160    4.9350    0.4460 C.3   378  TYR378      0.1605
    151  C         24.2290    6.4530    0.7010 C.2   378  TYR378      0.2264
    152  O         23.7490    7.2050   -0.1490 O.2   378  TYR378     -0.2867
    153  CB        25.4230    4.6340   -0.5910 C.3   378  TYR378      0.0534
    154  CG        26.8230    5.0600   -0.1990 C.ar  378  TYR378     -0.0201
    155  CD1       27.5220    4.3950    0.8250 C.ar  378  TYR378     -0.0009
    156  CD2       27.4630    6.1200   -0.8560 C.ar  378  TYR378     -0.0009
    157  CE1       28.8210    4.7720    1.1870 C.ar  378  TYR378      0.0417
    158  CE2       28.7640    6.5050   -0.5040 C.ar  378  TYR378      0.0417
    159  CZ        29.4400    5.8250    0.5210 C.ar  378  TYR378      0.1957
    160  OH        30.7310    6.1940    0.8670 O.3   378  TYR378     -0.2866
    161  N         27.9320    6.6620    8.4200 N.3   383  TYR383     -0.1241
    162  CA        29.2040    7.2530    8.8240 C.3   383  TYR383      0.1605
    163  C         29.0540    8.1820   10.0270 C.2   383  TYR383      0.2264
    164  O         29.6650    7.9730   11.0880 O.2   383  TYR383     -0.2867
    165  CB        29.8090    8.1210    7.7090 C.3   383  TYR383      0.0534
    166  CG        30.2390    7.4000    6.4580 C.ar  383  TYR383     -0.0201
    167  CD1       29.3050    6.9990    5.4920 C.ar  383  TYR383     -0.0009
    168  CD2       31.5840    7.0790    6.2560 C.ar  383  TYR383     -0.0009
    169  CE1       29.7130    6.2800    4.3470 C.ar  383  TYR383      0.0417
    170  CE2       31.9950    6.3740    5.1330 C.ar  383  TYR383      0.0417
    171  CZ        31.0610    5.9710    4.1840 C.ar  383  TYR383      0.1957
    172  OH        31.4970    5.2250    3.1050 O.3   383  TYR383     -0.2866
    173  N         34.4350   11.2170   -8.7800 N.3   563  ARG563     -0.1245
    174  CA        34.2120   10.8130   -7.3800 C.3   563  ARG563      0.1563
    175  C         32.7340   11.1600   -7.1580 C.2   563  ARG563      0.2260
    176  O         32.3330   12.3200   -7.2840 O.2   563  ARG563     -0.2867
    177  CB        35.1000   11.6370   -6.4400 C.3   563  ARG563      0.0307
    178  CG        35.1340   11.1860   -4.9720 C.3   563  ARG563      0.0489
    179  CD        36.1630   12.0530   -4.2520 C.3   563  ARG563      0.2205
    180  NE        36.0990   11.9360   -2.7990 N.pl3 563  ARG563     -0.0865
    181  CZ        36.9340   12.5550   -1.9640 C.cat 563  ARG563      0.5346
    182  NH1       37.9100   13.3220   -2.4270 N.pl3 563  ARG563      0.1354
    183  NH2       36.7470   12.4540   -0.6590 N.pl3 563  ARG563      0.1354
    184  N         30.8590   11.6390   -4.6520 N.3   565  LYS565     -0.1245
    185  CA        30.6660   12.6700   -3.6560 C.3   565  LYS565      0.1561
    186  C         30.6080   14.0660   -4.3080 C.2   565  LYS565      0.2260
    187  O         29.8980   14.9440   -3.8160 O.2   565  LYS565     -0.2867
    188  CB        31.8310   12.6110   -2.6610 C.3   565  LYS565      0.0271
    189  CG        31.8190   13.6920   -1.6220 C.3   565  LYS565      0.0035
    190  CD        33.0060   13.5530   -0.6740 C.3   565  LYS565      0.0206
    191  CE        32.9190   14.6010    0.4000 C.3   565  LYS565      0.1093
    192  NZ        34.0660   14.5260    1.3130 N.3   565  LYS565     -0.1314
@<TRIPOS>BOND
     1   173   174    1
     2     1     2    1
     3     5     2    1
     4     5     6    1
     5   174   175    1
     6   174   177    1
     7     4     3    2
     8   176   175    2
     9     2     3    1
    10   177   178    1
    11     6     7    1
    12   147   146    2
    13   146   145    1
    14   146   148   am
    15   145   142    1
    16    24    25    1
    17     7     8    2
    18     7     9   am
    19   178   179    1
    20   184   185    1
    21    33    31   ar
    22    33    34   ar
    23    27    26    2
    24    31    29   ar
    25   186   187    2
    26   186   185    1
    27   179   180    1
    28    35    34    1
    29   142   143    1
    30   142   141    1
    31    25    26    1
    32    25    28    1
    33   143   144    2
    34    13    12    2
    35    34    32   ar
    36    26    36   am
    37   185   188    1
    38    10    11    1
    39    29    28    1
    40    29    30   ar
    41    12    19   am
    42    12    11    1
    43    32    30   ar
    44   180   181    2
    45    19    20    1
    46   188   189    1
    47    36    37    1
    48    11    14    1
    49   182   181    1
    50    21    22    2
    51    21    20    1
    52    49    48    1
    53    49    50    1
    54    37    38    1
    55    48    45    1
    56    39    38    2
    57   181   183    1
    58    38    40   am
    59    20    23    1
    60   189   190    1
    61    14    15    1
    62    40    41    1
    63    50    51    1
    64   156   158   ar
    65   156   154   ar
    66    44    45    1
    67    44    42   am
    68    41    42    1
    69    45    46    1
    70    42    43    2
    71   190   191    1
    72    47    46    2
    73   153   154    1
    74   153   150    1
    75   158   159   ar
    76   154   155   ar
    77    15    16    1
    78   152   151    2
    79    46    52   am
    80   149   150    1
    81   191   192    1
    82   150   151    1
    83   159   160    1
    84   159   157   ar
    85    17    16    2
    86   155   157   ar
    87    16    18   am
    88    52    53    1
    89    54    53    1
    90    54    55    2
    91    74    73    1
    92    53    56    1
    93    75    73    1
    94    73    70    1
    95    94    92   ar
    96    59    58   ar
    97    91    92    1
    98    91    90    1
    99    92    93   ar
   100   172   171    1
   101    58    57    1
   102    58    60   ar
   103    56    57    1
   104    90    87    1
   105   115   113   ar
   106   115   114   ar
   107    70    71    1
   108    70    69    1
   109    71    72    2
   110   113   111   ar
   111   114   112   ar
   112   171   169   ar
   113   171   170   ar
   114   169   167   ar
   115    69    63   am
   116   124   122   ar
   117   111   110   ar
   118    87    86    1
   119    87    88    1
   120   112   110   ar
   121   170   168   ar
   122    67    66    2
   123   110   109    1
   124   167   166   ar
   125    83    85   ar
   126    83    81   ar
   127    86    78   am
   128   122   123   ar
   129   122   121    1
   130    88    89    2
   131    61    62    1
   132    85    84   ar
   133   102   104   ar
   134   102   100   ar
   135    63    64    2
   136    63    62    1
   137    66    68   am
   138    66    65    1
   139   104   103   ar
   140   109   106    1
   141   168   166   ar
   142   121   120    1
   143    81    80    1
   144    81    82   ar
   145   166   165    1
   146   100    99    1
   147   100   101   ar
   148    80    77    1
   149    99    96    1
   150    62    65    1
   151    78    79    2
   152    78    77    1
   153    84    82   ar
   154   103   101   ar
   155   106   105    1
   156   106   107    1
   157    77    76    1
   158   120   117    1
   159   165   162    1
   160    96    97    1
   161    96    95    1
   162    98    97    2
   163   107   108    2
   164   140   138   ar
   165   161   162    1
   166   139   138   ar
   167   117   116    1
   168   117   118    1
   169   162   163    1
   170   138   137    1
   171   131   129    1
   172   137   136    1
   173   118   119    2
   174   163   164    2
   175   136   133    1
   176   129   126    1
   177   129   130    1
   178   125   126    1
   179   126   127    1
   180   133   134    1
   181   133   132    1
   182   134   135    2
   183   127   128    2
