@<TRIPOS>MOLECULE
tmp/1gw9A00.pdb
 157 147 0 0 0
SMALL
GASTEIGER

@<TRIPOS>ATOM
      1  N         35.8200   25.2640   63.0470 N.3    15  TRP15      -0.1241
      2  CA        36.9460   25.4370   62.1260 C.3    15  TRP15       0.1605
      3  C         38.0460   26.3910   62.6070 C.2    15  TRP15       0.2264
      4  O         39.0640   26.5920   61.8830 O.2    15  TRP15      -0.2867
      5  CB        36.3880   25.9240   60.7620 C.3    15  TRP15       0.0550
      6  CG        35.8410   27.3120   60.8410 C.ar   15  TRP15       0.0003
      7  CD1       36.5450   28.5060   60.6620 C.ar   15  TRP15       0.0946
      8  CD2       34.4990   27.7110   61.2170 C.ar   15  TRP15       0.0152
      9  NE1       35.7210   29.6010   60.8870 N.ar   15  TRP15      -0.2442
     10  CE2       34.4530   29.1270   61.1910 C.ar   15  TRP15       0.0810
     11  CE3       33.3030   26.9960   61.4970 C.ar   15  TRP15       0.0012
     12  CZ2       33.2670   29.8530   61.4940 C.ar   15  TRP15       0.0191
     13  CZ3       32.1150   27.7750   61.7840 C.ar   15  TRP15       0.0001
     14  CH2       32.1150   29.1220   61.7840 C.ar   15  TRP15       0.0015
     15  N         30.2390   24.5820   59.9750 N.3    53  HIS53      -0.1241
     16  CA        29.8250   24.3860   58.5570 C.3    53  HIS53       0.1621
     17  C         29.3690   22.9290   58.5080 C.2    53  HIS53       0.2264
     18  O         29.9080   22.0620   59.2170 O.2    53  HIS53      -0.2867
     19  CB        31.0380   24.4360   57.5780 C.3    53  HIS53       0.0745
     20  CG        31.6850   25.7840   57.4900 C.ar   53  HIS53       0.0817
     21  ND1       32.6480   26.1860   58.3950 N.ar   53  HIS53      -0.2268
     22  CD2       31.5220   26.8210   56.6290 C.ar   53  HIS53       0.1154
     23  CE1       33.0300   27.4210   58.1110 C.ar   53  HIS53       0.1986
     24  NE2       32.3540   27.8280   57.0500 N.ar   53  HIS53      -0.2212
     25  N         24.4760   29.1830   65.8190 N.3    87  MET87      -0.1245
     26  CA        24.5910   29.5490   64.4030 C.3    87  MET87       0.1570
     27  C         25.2630   28.4070   63.6270 C.2    87  MET87       0.2261
     28  O         26.0830   27.6580   64.2040 O.2    87  MET87      -0.2867
     29  CB        25.5010   30.7580   64.3160 C.3    87  MET87       0.0387
     30  CG        25.7560   31.3190   62.8860 C.3    87  MET87       0.0595
     31  SD        27.2250   30.4710   62.0860 S.3    87  MET87      -0.1393
     32  CE        28.5880   31.4360   62.8100 C.3    87  MET87       0.0692
     33  N         26.3650   27.2550   59.2290 N.3    89  THR89      -0.1218
     34  CA        26.5740   27.7900   57.9090 C.3    89  THR89       0.1862
     35  C         26.9560   26.5900   57.0040 C.2    89  THR89       0.2287
     36  O         27.1260   25.4130   57.4530 O.2    89  THR89      -0.2866
     37  CB        27.6780   28.8440   57.9690 C.3    89  THR89       0.1770
     38  OG1       27.9330   29.3960   56.6710 O.3    89  THR89      -0.2211
     39  CG2       28.9580   28.3190   58.5670 C.3    89  THR89       0.0375
     40  N         32.7070   26.6330   49.5800 N.3    93  PHE93      -0.1241
     41  CA        33.9690   27.1620   49.0650 C.3    93  PHE93       0.1605
     42  C         35.0970   26.1450   48.8990 C.2    93  PHE93       0.2264
     43  O         35.9860   26.3570   48.0800 O.2    93  PHE93      -0.2867
     44  CB        34.4560   28.3320   49.9660 C.3    93  PHE93       0.0534
     45  CG        34.4210   28.0310   51.4600 C.ar   93  PHE93      -0.0203
     46  CD1       35.5060   27.4670   52.1170 C.ar   93  PHE93      -0.0042
     47  CD2       33.3000   28.3940   52.2280 C.ar   93  PHE93      -0.0042
     48  CE1       35.4660   27.1300   53.4590 C.ar   93  PHE93      -0.0003
     49  CE2       33.2570   28.0840   53.5750 C.ar   93  PHE93      -0.0003
     50  CZ        34.3240   27.4220   54.1940 C.ar   93  PHE93      -0.0000
     51  N         24.4420   31.5460   58.7300 N.3   134  VAL134     -0.1245
     52  CA        25.3170   32.5100   58.0190 C.3   134  VAL134      0.1561
     53  C         25.5790   32.0440   56.5730 C.2   134  VAL134      0.2260
     54  O         25.7550   30.8820   56.2920 O.2   134  VAL134     -0.2867
     55  CB        26.6730   32.6350   58.7790 C.3   134  VAL134      0.0252
     56  CG1       27.7540   33.3420   57.9170 C.3   134  VAL134      0.0019
     57  CG2       26.4250   33.4550   60.0420 C.3   134  VAL134      0.0019
     58  N         28.3670   32.9750   53.7120 N.3   136  TRP136     -0.1241
     59  CA        29.6260   33.6840   53.4010 C.3   136  TRP136      0.1605
     60  C         29.9550   33.2530   51.9460 C.2   136  TRP136      0.2264
     61  O         30.3660   32.1110   51.7450 O.2   136  TRP136     -0.2867
     62  CB        30.7570   33.1980   54.3120 C.3   136  TRP136      0.0550
     63  CG        32.0690   33.8090   53.8650 C.ar  136  TRP136      0.0003
     64  CD1       32.3100   35.1550   53.6350 C.ar  136  TRP136      0.0946
     65  CD2       33.2370   33.0920   53.4070 C.ar  136  TRP136      0.0152
     66  NE1       33.6150   35.3180   53.1560 N.ar  136  TRP136     -0.2442
     67  CE2       34.1870   34.0810   52.9910 C.ar  136  TRP136      0.0810
     68  CE3       33.5730   31.7390   53.3340 C.ar  136  TRP136      0.0012
     69  CZ2       35.4710   33.7330   52.5200 C.ar  136  TRP136      0.0191
     70  CZ3       34.8470   31.3840   52.8550 C.ar  136  TRP136      0.0001
     71  CH2       35.7750   32.3950   52.4700 C.ar  136  TRP136      0.0015
     72  N         27.6110   37.4110   55.4000 N.3   180  GLU180     -0.1245
     73  CA        28.9070   37.8870   55.8970 C.3   180  GLU180      0.1567
     74  C         29.7180   38.4470   54.7170 C.2   180  GLU180      0.2260
     75  O         30.1730   37.6440   53.8690 O.2   180  GLU180     -0.2867
     76  CB        29.6620   36.6860   56.4430 C.3   180  GLU180      0.0388
     77  CG        31.0540   37.0500   56.9890 C.3   180  GLU180      0.1160
     78  CD        31.7030   35.8820   57.6200 C.2   180  GLU180      0.3649
     79  OE1       31.0110   34.9200   58.0410 O.co2 180  GLU180     -0.2457
     80  OE2       32.9320   35.9960   57.8300 O.co2 180  GLU180     -0.2457
     81  N         32.9380   40.1170   52.6500 N.3   182  LYS182     -0.1245
     82  CA        34.4140   39.9940   52.6220 C.3   182  LYS182      0.1561
     83  C         34.7850   40.6550   51.3020 C.2   182  LYS182      0.2260
     84  O         34.1100   40.3920   50.3240 O.2   182  LYS182     -0.2867
     85  CB        34.9310   38.5720   52.7120 C.3   182  LYS182      0.0271
     86  CG        36.4380   38.5350   52.9470 C.3   182  LYS182      0.0035
     87  CD        36.9150   37.1320   52.8960 C.3   182  LYS182      0.0206
     88  CE        38.3600   37.0090   53.3400 C.3   182  LYS182      0.1093
     89  NZ        38.8560   35.6110   53.3540 N.3   182  LYS182     -0.1314
     90  N         26.3600   39.5150   59.1090 N.3   214  ASN214     -0.1240
     91  CA        27.3170   38.8850   60.0810 C.3   214  ASN214      0.1653
     92  C         28.7060   39.5370   59.7270 C.2   214  ASN214      0.2266
     93  O         29.5290   38.8630   59.0790 O.2   214  ASN214     -0.2867
     94  CB        27.4680   37.4070   59.8640 C.3   214  ASN214      0.1155
     95  CG        28.4490   36.7820   60.8340 C.2   214  ASN214      0.2627
     96  OD1       28.4480   37.1640   62.0130 O.2   214  ASN214     -0.2716
     97  ND2       29.2710   35.8510   60.3750 N.am  214  ASN214     -0.0877
     98  N         32.5650   40.8570   59.9320 N.3   216  GLU216     -0.1245
     99  CA        33.7430   40.2760   60.5990 C.3   216  GLU216      0.1567
    100  C         34.8100   41.3680   60.6650 C.2   216  GLU216      0.2260
    101  O         35.0820   42.0750   59.6900 O.2   216  GLU216     -0.2867
    102  CB        34.3760   39.1720   59.7530 C.3   216  GLU216      0.0388
    103  CG        35.6700   38.5920   60.4030 C.3   216  GLU216      0.1160
    104  CD        36.1140   37.2730   59.7720 C.2   216  GLU216      0.3649
    105  OE1       35.3460   36.3180   59.8300 O.co2 216  GLU216     -0.2457
    106  OE2       37.2910   37.1990   59.3980 O.co2 216  GLU216     -0.2457
    107  N         37.4730   41.4430   58.0280 N.3   219  HIS219     -0.1241
    108  CA        36.9850   41.6520   56.6380 C.3   219  HIS219      0.1621
    109  C         36.8400   43.0920   56.3110 C.2   219  HIS219      0.2264
    110  O         37.2960   43.5500   55.2520 O.2   219  HIS219     -0.2867
    111  CB        35.6760   40.9150   56.4260 C.3   219  HIS219      0.0745
    112  CG        35.8810   39.4440   56.4230 C.ar  219  HIS219      0.0817
    113  ND1       34.8620   38.5440   56.1940 N.ar  219  HIS219     -0.2268
    114  CD2       36.9820   38.7040   56.7090 C.ar  219  HIS219      0.1154
    115  CE1       35.3300   37.3160   56.3090 C.ar  219  HIS219      0.1986
    116  NE2       36.6150   37.3820   56.6350 N.ar  219  HIS219     -0.2212
    117  N         31.3690   38.4270   63.8580 N.3   244  ASP244     -0.1239
    118  CA        32.5510   37.5840   63.9050 C.3   244  ASP244      0.1674
    119  C         33.6980   38.4520   64.4060 C.2   244  ASP244      0.2266
    120  O         34.0380   39.4720   63.7980 O.2   244  ASP244     -0.2867
    121  CB        32.9750   37.1240   62.4860 C.3   244  ASP244      0.1410
    122  CG        32.2670   35.8580   62.0490 C.2   244  ASP244      0.3668
    123  OD1       31.4190   35.2990   62.7870 O.co2 244  ASP244     -0.2456
    124  OD2       32.6180   35.3490   60.9720 O.co2 244  ASP244     -0.2456
    125  N         43.7300   37.9540   54.7300 N.3   254  ASP254     -0.1239
    126  CA        42.8680   37.7460   55.9410 C.3   254  ASP254      0.1674
    127  C         43.7270   36.9730   56.9790 C.2   254  ASP254      0.2266
    128  O         43.9140   35.7820   56.8360 O.2   254  ASP254     -0.2867
    129  CB        41.6020   36.9110   55.4920 C.3   254  ASP254      0.1410
    130  CG        40.5210   36.7150   56.5910 C.2   254  ASP254      0.3668
    131  OD1       40.3220   37.6440   57.4060 O.co2 254  ASP254     -0.2456
    132  OD2       39.6950   35.7550   56.4970 O.co2 254  ASP254     -0.2456
    133  N         43.0190   36.5950   60.4220 N.3   256  ASP256     -0.1239
    134  CA        42.2110   35.8970   61.4580 C.3   256  ASP256      0.1674
    135  C         43.0010   35.7530   62.8160 C.2   256  ASP256      0.2266
    136  O         43.0100   34.6610   63.4310 O.2   256  ASP256     -0.2867
    137  CB        41.7380   34.5340   60.9810 C.3   256  ASP256      0.1410
    138  CG        40.5900   34.6230   59.9470 C.2   256  ASP256      0.3668
    139  OD1       40.0760   35.7160   59.6520 O.co2 256  ASP256     -0.2456
    140  OD2       40.1840   33.5510   59.4550 O.co2 256  ASP256     -0.2456
    141  N         35.7990   34.1870   65.0470 N.3   286  ASP286     -0.1239
    142  CA        36.1230   33.4600   63.8340 C.3   286  ASP286      0.1674
    143  C         37.6080   33.7870   63.6110 C.2   286  ASP286      0.2266
    144  O         37.9490   34.8290   63.0460 O.2   286  ASP286     -0.2867
    145  CB        35.2970   33.9320   62.6690 C.3   286  ASP286      0.1410
    146  CG        35.6600   33.2030   61.4180 C.2   286  ASP286      0.3668
    147  OD1       36.4310   32.2500   61.4450 O.co2 286  ASP286     -0.2456
    148  OD2       35.2500   33.6600   60.3420 O.co2 286  ASP286     -0.2456
    149  N         41.9580   32.0880   63.6870 N.3   288  LYS288     -0.1245
    150  CA        42.7790   30.9020   63.4780 C.3   288  LYS288      0.1561
    151  C         44.0150   31.0170   64.3770 C.2   288  LYS288      0.2260
    152  O         44.7710   31.9970   64.2410 O.2   288  LYS288     -0.2867
    153  CB        43.2910   30.7710   62.0260 C.3   288  LYS288      0.0271
    154  CG        42.1560   30.3560   61.1080 C.3   288  LYS288      0.0035
    155  CD        42.4880   30.4780   59.6070 C.3   288  LYS288      0.0206
    156  CE        41.3140   29.8770   58.7730 C.3   288  LYS288      0.1093
    157  NZ        40.0150   30.6950   58.7210 N.3   288  LYS288     -0.1314
@<TRIPOS>BOND
     1    43    42    2
     2    42    41    1
     3    41    40    1
     4    41    44    1
     5    44    45    1
     6    84    83    2
     7    83    82    1
     8    45    46   ar
     9    45    47   ar
    10    61    60    2
    11    60    59    1
    12    46    48   ar
    13    47    49   ar
    14    71    69   ar
    15    71    70   ar
    16    69    67   ar
    17    82    81    1
    18    82    85    1
    19    85    86    1
    20    70    68   ar
    21    87    86    1
    22    87    88    1
    23    67    66   ar
    24    67    65   ar
    25    66    64   ar
    26    68    65   ar
    27    88    89    1
    28    59    58    1
    29    59    62    1
    30    65    63   ar
    31    48    50   ar
    32    49    50   ar
    33    64    63   ar
    34    63    62    1
    35    75    74    2
    36    74    73    1
    37   125   126    1
    38   110   109    2
    39    72    73    1
    40   129   126    1
    41   129   130    1
    42    73    76    1
    43   126   127    1
    44   113   115   ar
    45   113   112   ar
    46    54    53    2
    47   115   116   ar
    48   109   108    1
    49   112   111    1
    50   112   114   ar
    51   111   108    1
    52    76    77    1
    53   132   130   ar
    54    53    52    1
    55   130   131   ar
    56    22    24   ar
    57    22    20   ar
    58   116   114   ar
    59   108   107    1
    60    38    37    1
    61   128   127    2
    62    77    78    1
    63    35    36    2
    64    35    34    1
    65    24    23   ar
    66    20    19    1
    67    20    21   ar
    68    19    16    1
    69    78    80   ar
    70    78    79   ar
    71    34    37    1
    72    34    33    1
    73    56    55    1
    74    37    39    1
    75    52    51    1
    76    52    55    1
    77    23    21   ar
    78    17    16    1
    79    17    18    2
    80    16    15    1
    81   157   156    1
    82   156   155    1
    83    55    57    1
    84    93    92    2
    85    90    91    1
    86   106   104   ar
    87   140   138   ar
    88   155   154    1
    89   139   138   ar
    90   101   100    2
    91    92    91    1
    92   102   103    1
    93   102    99    1
    94   104   105   ar
    95   104   103    1
    96    94    91    1
    97    94    95    1
    98    98    99    1
    99   138   137    1
   100   148   146   ar
   101    97    95   am
   102   133   134    1
   103    99   100    1
   104     7     6   ar
   105     7     9   ar
   106     5     6    1
   107     5     2    1
   108    95    96    2
   109     6     8   ar
   110     9    10   ar
   111   124   122   ar
   112   137   134    1
   113   154   153    1
   114    10     8   ar
   115    10    12   ar
   116     8    11   ar
   117   146   147   ar
   118   146   145    1
   119   134   135    1
   120    12    14   ar
   121    11    13   ar
   122    14    13   ar
   123     4     3    2
   124   153   150    1
   125   122   121    1
   126   122   123   ar
   127    31    32    1
   128    31    30    1
   129     2     3    1
   130     2     1    1
   131   121   118    1
   132   145   142    1
   133   135   136    2
   134    30    29    1
   135   144   143    2
   136   150   149    1
   137   150   151    1
   138   143   142    1
   139    27    28    2
   140    27    26    1
   141   120   119    2
   142   142   141    1
   143   117   118    1
   144   118   119    1
   145   152   151    2
   146    29    26    1
   147    26    25    1
