@<TRIPOS>MOLECULE
tmp/1gwcC00.pdb
 188 184 0 0 0
SMALL
GASTEIGER

@<TRIPOS>ATOM
      1  N         83.1510   43.9090   59.1300 N.3     9  ALA9       -0.1245
      2  CA        82.9660   45.0960   59.9880 C.3     9  ALA9        0.1562
      3  C         82.1080   44.5200   61.0990 C.2     9  ALA9        0.2260
      4  O         81.1140   43.8220   60.8550 O.2     9  ALA9       -0.2867
      5  CB        82.2940   46.1850   59.2380 C.3     9  ALA9        0.0290
      6  N         79.9080   45.2220   63.4090 N.3    11  PRO11      -0.2102
      7  CA        78.4740   45.3020   63.6140 C.3    11  PRO11       0.1504
      8  C         77.6400   44.4300   62.6940 C.2    11  PRO11       0.2576
      9  O         76.5350   44.1040   63.0840 O.2    11  PRO11      -0.2718
     10  CB        78.1600   46.7830   63.3400 C.3    11  PRO11       0.0282
     11  CG        79.4120   47.4500   63.4730 C.3    11  PRO11       0.0208
     12  CD        80.4270   46.4950   62.9020 C.3    11  PRO11       0.0893
     13  N         78.1380   44.0200   61.5460 N.am   12  SER12      -0.1939
     14  CA        77.3170   43.3200   60.5990 C.3    12  SER12       0.2040
     15  C         76.9750   41.8880   61.0330 C.2    12  SER12       0.2485
     16  O         77.8360   41.0410   61.2490 O.2    12  SER12      -0.2729
     17  CB        78.0290   43.2190   59.2750 C.3    12  SER12       0.2129
     18  OG        77.3880   42.2750   58.4220 O.3    12  SER12      -0.2179
     19  N         75.6940   41.5920   61.0960 N.am   13  PRO13      -0.2715
     20  CA        75.2560   40.2430   61.4760 C.3    13  PRO13       0.1536
     21  C         75.7040   39.1780   60.4670 C.2    13  PRO13       0.2598
     22  O         75.7770   38.0240   60.7800 O.2    13  PRO13      -0.2715
     23  CB        73.7630   40.3280   61.4290 C.3    13  PRO13       0.0310
     24  CG        73.4410   41.3420   60.5070 C.3    13  PRO13       0.0237
     25  CD        74.5800   42.4340   60.6680 C.3    13  PRO13       0.0939
     26  N         76.0240   39.6080   59.2710 N.am   14  PHE14      -0.1974
     27  CA        76.4430   38.7150   58.2240 C.3    14  PHE14       0.1639
     28  C         77.8720   38.2440   58.4970 C.2    14  PHE14       0.2290
     29  O         78.2360   37.0900   58.3260 O.2    14  PHE14      -0.2864
     30  CB        76.2150   39.4290   56.8760 C.3    14  PHE14       0.0560
     31  CG        74.7760   39.8730   56.6720 C.ar   14  PHE14      -0.0200
     32  CD1       74.4360   41.2120   56.6410 C.ar   14  PHE14      -0.0042
     33  CD2       73.7610   38.9530   56.4880 C.ar   14  PHE14      -0.0042
     34  CE1       73.1480   41.6520   56.5130 C.ar   14  PHE14      -0.0003
     35  CE2       72.4190   39.3920   56.3440 C.ar   14  PHE14      -0.0003
     36  CZ        72.1220   40.7460   56.3650 C.ar   14  PHE14      -0.0000
     37  N         77.7330   35.8400   61.3810 N.3    17  ARG17      -0.1245
     38  CA        77.4770   34.4680   61.0450 C.3    17  ARG17       0.1563
     39  C         78.7270   33.6700   60.6840 C.2    17  ARG17       0.2260
     40  O         78.8660   32.5500   61.1290 O.2    17  ARG17      -0.2867
     41  CB        76.5060   34.3590   59.9010 C.3    17  ARG17       0.0307
     42  CG        75.1390   34.8400   60.1720 C.3    17  ARG17       0.0489
     43  CD        74.4430   34.9260   58.8610 C.3    17  ARG17       0.2205
     44  NE        73.0210   35.0080   59.0270 N.pl3  17  ARG17      -0.0865
     45  CZ        72.1810   35.1470   58.0560 C.cat  17  ARG17       0.5346
     46  NH1       70.9110   35.1840   58.3180 N.pl3  17  ARG17       0.1354
     47  NH2       72.5860   35.2460   56.8110 N.pl3  17  ARG17       0.1354
     48  N         83.7770   50.6680   56.0590 N.3    36  LEU36      -0.1245
     49  CA        82.8680   50.8100   54.9170 C.3    36  LEU36       0.1561
     50  C         82.8280   52.1890   54.2230 C.2    36  LEU36       0.2260
     51  O         82.2500   52.2770   53.1760 O.2    36  LEU36      -0.2867
     52  CB        81.4620   50.3510   55.2700 C.3    36  LEU36       0.0270
     53  CG        81.4550   49.0060   55.9570 C.3    36  LEU36       0.0019
     54  CD1       80.0700   48.4220   56.0490 C.3    36  LEU36       0.0001
     55  CD2       82.2260   48.0140   55.1280 C.3    36  LEU36       0.0001
     56  N         86.9870   51.5930   51.9670 N.3    39  LYS39      -0.1245
     57  CA        87.2380   50.1810   51.7680 C.3    39  LYS39       0.1561
     58  C         88.6050   49.9190   51.2610 C.2    39  LYS39       0.2260
     59  O         89.0860   50.6000   50.4080 O.2    39  LYS39      -0.2867
     60  CB        86.2110   49.5690   50.8400 C.3    39  LYS39       0.0271
     61  CG        84.7850   49.6910   51.3790 C.3    39  LYS39       0.0035
     62  CD        83.6450   49.3240   50.3950 C.3    39  LYS39       0.0206
     63  CE        82.2900   49.4670   51.1130 C.3    39  LYS39       0.1093
     64  NZ        81.1940   49.2800   50.2020 N.3    39  LYS39      -0.1314
     65  N         79.5960   43.4500   44.7940 N.3    50  HIS50      -0.1226
     66  CA        78.8060   44.1620   45.7490 C.3    50  HIS50       0.1752
     67  C         79.6020   45.1440   46.6870 C.2    50  HIS50       0.2596
     68  O         79.0080   45.9820   47.3120 O.2    50  HIS50      -0.2718
     69  CB        78.1400   43.1720   46.6400 C.3    50  HIS50       0.0759
     70  CG        77.2990   42.1540   45.9370 C.ar   50  HIS50       0.0818
     71  ND1       76.1270   42.4660   45.2810 N.ar   50  HIS50      -0.2268
     72  CD2       77.3910   40.8050   45.9030 C.ar   50  HIS50       0.1154
     73  CE1       75.5380   41.3650   44.8640 C.ar   50  HIS50       0.1986
     74  NE2       76.2670   40.3410   45.2580 N.ar   50  HIS50      -0.2212
     75  N         80.9180   44.9480   46.8030 N.am   51  LYS51      -0.1966
     76  CA        81.7900   45.6670   47.7200 C.3    51  LYS51       0.1728
     77  C         81.2980   45.5700   49.1190 C.2    51  LYS51       0.2616
     78  O         81.3960   46.4850   49.8620 O.2    51  LYS51      -0.2715
     79  CB        81.9610   47.1220   47.3400 C.3    51  LYS51       0.0311
     80  CG        82.5310   47.3080   45.9900 C.3    51  LYS51       0.0038
     81  CD        82.3300   48.7400   45.4530 C.3    51  LYS51       0.0206
     82  CE        82.8700   48.8180   44.0390 C.3    51  LYS51       0.1093
     83  NZ        82.5830   50.1130   43.3830 N.3    51  LYS51      -0.1314
     84  N         80.7210   44.4390   49.4330 N.am   52  LYS52      -0.1963
     85  CA        80.2330   44.2180   50.7760 C.3    52  LYS52       0.1728
     86  C         81.0750   43.1990   51.5630 C.2    52  LYS52       0.2616
     87  O         81.8140   42.3980   50.9820 O.2    52  LYS52      -0.2715
     88  CB        78.7970   43.7300   50.6650 C.3    52  LYS52       0.0311
     89  CG        77.8090   44.8620   50.2660 C.3    52  LYS52       0.0038
     90  CD        76.3380   44.4120   50.1690 C.3    52  LYS52       0.0206
     91  CE        75.5170   45.6080   49.5730 C.3    52  LYS52       0.1093
     92  NZ        74.1390   45.2680   49.7650 N.3    52  LYS52      -0.1314
     93  N         80.9050   43.2340   52.8780 N.am   53  ILE53      -0.1964
     94  CA        81.4050   42.1850   53.7440 C.3    53  ILE53       0.1712
     95  C         80.2430   41.3900   54.1850 C.2    53  ILE53       0.2458
     96  O         79.1540   41.9060   54.1890 O.2    53  ILE53      -0.2730
     97  CB        82.2490   42.7850   54.9070 C.3    53  ILE53       0.0289
     98  CG1       81.6280   44.0180   55.4990 C.3    53  ILE53       0.0022
     99  CG2       83.5400   43.3700   54.3390 C.3    53  ILE53       0.0023
    100  CD1       80.4190   43.8520   56.2460 C.3    53  ILE53       0.0001
    101  N         80.4210   40.1790   54.6690 N.am   54  PRO54      -0.2727
    102  CA        81.7150   39.5400   54.8810 C.3    54  PRO54       0.1402
    103  C         82.2810   39.0290   53.6340 C.2    54  PRO54       0.2269
    104  O         81.5410   38.7540   52.7020 O.2    54  PRO54      -0.2865
    105  CB        81.3670   38.3510   55.7800 C.3    54  PRO54       0.0296
    106  CG        80.0200   37.9920   55.3570 C.3    54  PRO54       0.0237
    107  CD        79.3290   39.3120   55.1340 C.3    54  PRO54       0.0939
    108  N         79.0810   36.3280   50.5110 N.3    65  GLU65      -0.1231
    109  CA        77.7250   36.0230   50.9790 C.3    65  GLU65       0.1699
    110  C         77.7800   35.0970   52.1520 C.2    65  GLU65       0.2593
    111  O         78.2070   33.9540   52.0360 O.2    65  GLU65      -0.2718
    112  CB        76.7890   35.4840   49.9200 C.3    65  GLU65       0.0402
    113  CG        76.3640   36.4870   48.9000 C.3    65  GLU65       0.1161
    114  CD        75.1600   37.3240   49.3450 C.2    65  GLU65       0.3649
    115  OE1       74.4820   37.0090   50.3440 O.co2  65  GLU65      -0.2457
    116  OE2       74.8710   38.3260   48.6970 O.co2  65  GLU65      -0.2457
    117  N         77.3310   35.6110   53.2810 N.am   66  SER66      -0.1938
    118  CA        77.4590   34.8950   54.4960 C.3    66  SER66       0.2055
    119  C         76.9830   33.4110   54.4140 C.2    66  SER66       0.2642
    120  O         77.7190   32.5540   54.8890 O.2    66  SER66      -0.2714
    121  CB        76.7460   35.6330   55.6330 C.3    66  SER66       0.2130
    122  OG        75.3300   35.5790   55.4260 O.3    66  SER66      -0.2179
    123  N         75.8190   33.1180   53.8580 N.am   67  MET67      -0.1976
    124  CA        75.3300   31.7380   53.8970 C.3    67  MET67       0.1605
    125  C         76.0570   30.7660   52.9200 C.2    67  MET67       0.2287
    126  O         76.0970   29.5390   53.1670 O.2    67  MET67      -0.2864
    127  CB        73.8140   31.6930   53.7310 C.3    67  MET67       0.0413
    128  CG        73.0580   32.4440   54.9260 C.3    67  MET67       0.0598
    129  SD        73.5040   31.8950   56.5500 S.3    67  MET67      -0.1393
    130  CE        73.1260   30.1570   56.5220 C.3    67  MET67       0.0692
    131  N         64.9470   44.6620   59.0400 N.3   111  ARG111     -0.1245
    132  CA        65.6670   45.7930   58.5510 C.3   111  ARG111      0.1563
    133  C         64.7580   46.9910   58.1630 C.2   111  ARG111      0.2260
    134  O         65.1150   48.1740   58.3070 O.2   111  ARG111     -0.2867
    135  CB        66.3730   45.3370   57.3330 C.3   111  ARG111      0.0307
    136  CG        67.8000   45.5620   57.4250 C.3   111  ARG111      0.0489
    137  CD        68.6330   44.5730   56.6550 C.3   111  ARG111      0.2205
    138  NE        69.5730   45.3620   55.8870 N.pl3 111  ARG111     -0.0865
    139  CZ        70.4080   44.8470   55.0250 C.cat 111  ARG111      0.5346
    140  NH1       71.2330   45.6700   54.3860 N.pl3 111  ARG111      0.1354
    141  NH2       70.4010   43.5260   54.7920 N.pl3 111  ARG111      0.1354
    142  N         64.9570   50.6810   59.3910 N.3   115  ARG115     -0.1245
    143  CA        65.5580   51.6820   58.5480 C.3   115  ARG115      0.1563
    144  C         64.4850   52.0910   57.6250 C.2   115  ARG115      0.2260
    145  O         64.7380   52.5860   56.5630 O.2   115  ARG115     -0.2867
    146  CB        66.7200   51.1030   57.7320 C.3   115  ARG115      0.0307
    147  CG        67.9450   50.7160   58.5800 C.3   115  ARG115      0.0489
    148  CD        69.3440   50.8110   57.8980 C.3   115  ARG115      0.2205
    149  NE        69.8100   49.5680   57.2610 N.pl3 115  ARG115     -0.0865
    150  CZ        71.0120   49.3990   56.6900 C.cat 115  ARG115      0.5346
    151  NH1       71.3040   48.2390   56.1340 N.pl3 115  ARG115      0.1354
    152  NH2       71.9270   50.3710   56.6580 N.pl3 115  ARG115      0.1354
    153  N         71.9520   42.0100   67.3310 N.3   168  TRP168     -0.1241
    154  CA        71.0100   42.9900   66.7720 C.3   168  TRP168      0.1605
    155  C         69.6370   42.8920   67.3460 C.2   168  TRP168      0.2264
    156  O         69.0010   43.8870   67.6010 O.2   168  TRP168     -0.2867
    157  CB        70.9620   42.9570   65.2310 C.3   168  TRP168      0.0550
    158  CG        72.0270   43.9140   64.6680 C.ar  168  TRP168      0.0003
    159  CD1       73.2590   43.5990   64.2160 C.ar  168  TRP168      0.0946
    160  CD2       71.9500   45.3330   64.6400 C.ar  168  TRP168      0.0152
    161  NE1       73.9700   44.7370   63.9120 N.ar  168  TRP168     -0.2442
    162  CE2       73.1700   45.8180   64.1180 C.ar  168  TRP168      0.0810
    163  CE3       70.9640   46.2560   64.9760 C.ar  168  TRP168      0.0012
    164  CZ2       73.4110   47.1420   63.9140 C.ar  168  TRP168      0.0191
    165  CZ3       71.2510   47.6380   64.8320 C.ar  168  TRP168      0.0001
    166  CH2       72.4600   48.0450   64.2920 C.ar  168  TRP168      0.0015
    167  N         76.5300   52.1510   68.6220 N.3   215  PHE215     -0.1241
    168  CA        76.6510   52.2220   67.2060 C.3   215  PHE215      0.1605
    169  C         75.2600   52.4260   66.5970 C.2   215  PHE215      0.2264
    170  O         75.0600   53.2490   65.7400 O.2   215  PHE215     -0.2867
    171  CB        77.2350   50.9340   66.6590 C.3   215  PHE215      0.0534
    172  CG        77.2310   50.8930   65.2050 C.ar  215  PHE215     -0.0203
    173  CD1       76.2770   50.2260   64.5250 C.ar  215  PHE215     -0.0042
    174  CD2       78.1920   51.5540   64.4820 C.ar  215  PHE215     -0.0042
    175  CE1       76.2810   50.1820   63.1180 C.ar  215  PHE215     -0.0003
    176  CE2       78.2020   51.5000   63.0520 C.ar  215  PHE215     -0.0003
    177  CZ        77.2390   50.7930   62.3850 C.ar  215  PHE215     -0.0000
    178  N         73.4700   55.6470   64.2720 N.3   219  ARG219     -0.1245
    179  CA        73.0250   55.5540   62.9100 C.3   219  ARG219      0.1563
    180  C         71.5490   55.8940   62.8110 C.2   219  ARG219      0.2260
    181  O         71.0550   56.3080   61.7760 O.2   219  ARG219     -0.2867
    182  CB        73.2640   54.1720   62.3950 C.3   219  ARG219      0.0307
    183  CG        74.6790   53.9700   61.9780 C.3   219  ARG219      0.0489
    184  CD        74.7640   52.7440   61.1450 C.3   219  ARG219      0.2205
    185  NE        75.3800   52.9700   59.8370 N.pl3 219  ARG219     -0.0865
    186  CZ        75.0410   52.3030   58.7330 C.cat 219  ARG219      0.5346
    187  NH1       74.1020   51.3510   58.7560 N.pl3 219  ARG219      0.1354
    188  NH2       75.6740   52.5750   57.6020 N.pl3 219  ARG219      0.1354
@<TRIPOS>BOND
     1    83    82    1
     2    82    81    1
     3    65    66    1
     4    73    74   ar
     5    73    71   ar
     6    74    72   ar
     7    71    70   ar
     8    81    80    1
     9    66    69    1
    10    66    67    1
    11    72    70   ar
    12    70    69    1
    13    80    79    1
    14    67    75   am
    15    67    68    2
    16    75    76    1
    17    79    76    1
    18    76    77    1
    19   116   114   ar
    20   113   114    1
    21   113   112    1
    22    77    84   am
    23    77    78    2
    24   114   115   ar
    25    84    85    1
    26    91    92    1
    27    91    90    1
    28   112   109    1
    29    90    89    1
    30    64    63    1
    31    89    88    1
    32    62    63    1
    33    62    61    1
    34    59    58    2
    35   108   109    1
    36    88    85    1
    37    85    86    1
    38    60    61    1
    39    60    57    1
    40   109   110    1
    41    87    86    2
    42    58    57    1
    43    86    93   am
    44    57    56    1
    45   111   110    2
    46   110   117   am
    47   104   103    2
    48    93    94    1
    49   125   126    2
    50   125   124    1
    51    51    50    2
    52   117   118    1
    53   103   102    1
    54   127   124    1
    55   127   128    1
    56    94    95    1
    57    94    97    1
    58   123   124    1
    59   123   119   am
    60    95    96    2
    61    95   101   am
    62    50    49    1
    63    99    97    1
    64   140   139    1
    65   119   118    1
    66   119   120    2
    67   118   121    1
    68   101   102    1
    69   101   107    1
    70   141   139    1
    71   102   105    1
    72    97    98    1
    73    49    52    1
    74    49    48    1
    75   128   129    1
    76   139   138    2
    77    55    53    1
    78   107   106    1
    79    52    53    1
    80   106   105    1
    81   122   121    1
    82    98   100    1
    83   138   137    1
    84    53    54    1
    85   151   150    1
    86    35    36   ar
    87    35    33   ar
    88    36    34   ar
    89    33    31   ar
    90    34    32   ar
    91   130   129    1
    92   145   144    2
    93    32    31   ar
    94   137   136    1
    95   152   150    1
    96    31    30    1
    97   150   149    2
    98    47    45    1
    99    30    27    1
   100   149   148    1
   101   135   136    1
   102   135   132    1
   103   188   186    1
   104   144   143    1
   105   146   143    1
   106   146   147    1
   107   148   147    1
   108    45    46    1
   109    45    44    2
   110   133   134    2
   111   133   132    1
   112    27    28    1
   113    27    26    1
   114    29    28    2
   115    18    17    1
   116   143   142    1
   117   132   131    1
   118   186   187    1
   119   186   185    2
   120    43    44    1
   121    43    42    1
   122     1     2    1
   123     5     2    1
   124    26    21   am
   125    17    14    1
   126   185   184    1
   127    41    42    1
   128    41    38    1
   129     2     3    1
   130    21    22    2
   131    21    20    1
   132    24    25    1
   133    24    23    1
   134    14    15    1
   135    14    13    1
   136    25    19    1
   137    39    38    1
   138    39    40    2
   139     4     3    2
   140    15    19   am
   141    15    16    2
   142    38    37    1
   143    19    20    1
   144   184   183    1
   145    23    20    1
   146    13     8   am
   147   181   180    2
   148   183   182    1
   149   177   176   ar
   150   177   175   ar
   151   182   179    1
   152     8     9    2
   153     8     7    1
   154   180   179    1
   155    12     6    1
   156    12    11    1
   157   179   178    1
   158   176   174   ar
   159   175   173   ar
   160    10    11    1
   161    10     7    1
   162     6     7    1
   163   161   162   ar
   164   161   159   ar
   165   164   162   ar
   166   164   166   ar
   167   162   160   ar
   168   159   158   ar
   169   166   165   ar
   170   174   172   ar
   171   173   172   ar
   172   160   158   ar
   173   160   163   ar
   174   158   157    1
   175   165   163   ar
   176   172   171    1
   177   157   154    1
   178   170   169    2
   179   169   168    1
   180   171   168    1
   181   154   153    1
   182   154   155    1
   183   168   167    1
   184   155   156    2
