@<TRIPOS>MOLECULE
tmp/1gwhA01.pdb
 120 114 0 0 0
SMALL
GASTEIGER

@<TRIPOS>ATOM
      1  N         35.5730    0.3990   -7.4930 N.3   131  PRO131     -0.2116
      2  CA        35.6480   -1.0500   -7.7040 C.3   131  PRO131      0.1372
      3  C         35.4430   -1.8960   -6.4580 C.2   131  PRO131      0.2244
      4  O         35.3710   -3.0960   -6.5630 O.2   131  PRO131     -0.2868
      5  CB        37.0830   -1.2540   -8.2200 C.3   131  PRO131      0.0268
      6  CG        37.8520   -0.1710   -7.6070 C.3   131  PRO131      0.0207
      7  CD        36.9040    1.0420   -7.5590 C.3   131  PRO131      0.0892
      8  N         39.3110    5.1470   -0.3220 N.3   178  TYR178     -0.1241
      9  CA        38.9030    5.6080   -1.6330 C.3   178  TYR178      0.1605
     10  C         37.9640    6.8190   -1.5240 C.2   178  TYR178      0.2264
     11  O         38.1210    7.8100   -2.2460 O.2   178  TYR178     -0.2867
     12  CB        38.2250    4.4240   -2.3460 C.3   178  TYR178      0.0534
     13  CG        37.9020    4.5940   -3.8200 C.ar  178  TYR178     -0.0201
     14  CD1       36.8370    5.3640   -4.2360 C.ar  178  TYR178     -0.0009
     15  CD2       38.6250    3.9170   -4.7900 C.ar  178  TYR178     -0.0009
     16  CE1       36.5410    5.5200   -5.6110 C.ar  178  TYR178      0.0417
     17  CE2       38.3150    4.0420   -6.1680 C.ar  178  TYR178      0.0417
     18  CZ        37.2730    4.8310   -6.5590 C.ar  178  TYR178      0.1957
     19  OH        36.9630    4.9030   -7.9180 O.3   178  TYR178     -0.2866
     20  N         40.5940   11.7660   -3.4640 N.3   182  PRO182     -0.2102
     21  CA        40.0620   12.7060   -4.4590 C.3   182  PRO182      0.1504
     22  C         38.7220   12.3150   -5.0410 C.2   182  PRO182      0.2575
     23  O         37.8870   13.1790   -5.3280 O.2   182  PRO182     -0.2718
     24  CB        41.1190   12.6800   -5.5720 C.3   182  PRO182      0.0282
     25  CG        42.2940   12.0620   -4.9900 C.3   182  PRO182      0.0208
     26  CD        41.9250   11.2560   -3.8230 C.3   182  PRO182      0.0893
     27  N         38.5210   11.0230   -5.2440 N.am  183  ARG183     -0.1980
     28  CA        37.3180   10.5460   -5.9480 C.3   183  ARG183      0.1597
     29  C         36.0260   10.5770   -5.1270 C.2   183  ARG183      0.2287
     30  O         34.9660   10.2490   -5.6370 O.2   183  ARG183     -0.2864
     31  CB        37.5710    9.1350   -6.4800 C.3   183  ARG183      0.0334
     32  CG        38.6080    9.1080   -7.5470 C.3   183  ARG183      0.0492
     33  CD        38.7310    7.7210   -8.1770 C.3   183  ARG183      0.2205
     34  NE        39.7560    7.6820   -9.2100 N.pl3 183  ARG183     -0.0865
     35  CZ        39.9500    6.6560  -10.0440 C.cat 183  ARG183      0.5346
     36  NH1       39.1630    5.5850   -9.9900 N.pl3 183  ARG183      0.1354
     37  NH2       40.9280    6.7440  -10.9460 N.pl3 183  ARG183      0.1354
     38  N         34.6050    7.3280  -13.2900 N.3   193  ASN193     -0.1240
     39  CA        34.5630    5.9710  -13.7950 C.3   193  ASN193      0.1653
     40  C         33.4150    5.2170  -13.1290 C.2   193  ASN193      0.2266
     41  O         32.8960    5.6280  -12.0690 O.2   193  ASN193     -0.2867
     42  CB        35.8850    5.2760  -13.5190 C.3   193  ASN193      0.1155
     43  CG        37.0130    5.8090  -14.3670 C.2   193  ASN193      0.2627
     44  OD1       36.7940    6.5070  -15.3630 O.2   193  ASN193     -0.2716
     45  ND2       38.2420    5.4400  -13.9980 N.am  193  ASN193     -0.0877
     46  N         32.1130    1.0360  -12.2150 N.3   195  TYR195     -0.1241
     47  CA        32.6650   -0.3020  -11.9810 C.3   195  TYR195      0.1605
     48  C         31.5530   -1.2280  -11.5630 C.2   195  TYR195      0.2264
     49  O         30.6230   -0.8200  -10.8810 O.2   195  TYR195     -0.2867
     50  CB        33.7170   -0.2980  -10.8610 C.3   195  TYR195      0.0534
     51  CG        34.8770    0.6460  -11.0650 C.ar  195  TYR195     -0.0201
     52  CD1       36.0490    0.2150  -11.7240 C.ar  195  TYR195     -0.0009
     53  CD2       34.8020    1.9820  -10.6500 C.ar  195  TYR195     -0.0009
     54  CE1       37.0910    1.0820  -11.9450 C.ar  195  TYR195      0.0417
     55  CE2       35.8280    2.8740  -10.9060 C.ar  195  TYR195      0.0417
     56  CZ        37.0010    2.4250  -11.5220 C.ar  195  TYR195      0.1957
     57  OH        38.0820    3.2560  -11.7490 O.3   195  TYR195     -0.2866
     58  N         35.6410    3.0600  -18.0660 N.3   217  ILE217     -0.1245
     59  CA        36.6290    4.1050  -17.9930 C.3   217  ILE217      0.1561
     60  C         36.1360    5.2930  -18.7960 C.2   217  ILE217      0.2260
     61  O         35.9410    5.2290  -20.0180 O.2   217  ILE217     -0.2867
     62  CB        37.9970    3.5990  -18.5280 C.3   217  ILE217      0.0252
     63  CG1       38.4530    2.3300  -17.8010 C.3   217  ILE217      0.0019
     64  CG2       39.0670    4.7380  -18.4310 C.3   217  ILE217      0.0019
     65  CD1       38.5240    2.4160  -16.2790 C.3   217  ILE217      0.0001
     66  N         45.8710   -5.6580  -11.8490 N.3   285  GLN285     -0.1245
     67  CA        45.9660   -5.5760  -13.2920 C.3   285  GLN285      0.1566
     68  C         47.2710   -6.1400  -13.8520 C.2   285  GLN285      0.2260
     69  O         47.3450   -6.4320  -15.0180 O.2   285  GLN285     -0.2867
     70  CB        45.7550   -4.1300  -13.7650 C.3   285  GLN285      0.0367
     71  CG        44.2910   -3.7010  -13.6360 C.3   285  GLN285      0.0905
     72  CD        44.0830   -2.2230  -13.9490 C.2   285  GLN285      0.2608
     73  OE1       44.3960   -1.7860  -15.0470 O.2   285  GLN285     -0.2717
     74  NE2       43.5730   -1.4560  -12.9770 N.am  285  GLN285     -0.0878
     75  N         43.3570   -5.6490  -18.0520 N.3   290  ARG290     -0.1245
     76  CA        42.1060   -5.2190  -18.6670 C.3   290  ARG290      0.1563
     77  C         42.0380   -5.5260  -20.1570 C.2   290  ARG290      0.2260
     78  O         42.9840   -5.2990  -20.9040 O.2   290  ARG290     -0.2867
     79  CB        41.8750   -3.7180  -18.4550 C.3   290  ARG290      0.0307
     80  CG        41.5210   -3.3520  -17.0270 C.3   290  ARG290      0.0489
     81  CD        41.4650   -1.8490  -16.8730 C.3   290  ARG290      0.2205
     82  NE        40.8540   -1.4720  -15.6150 N.pl3 290  ARG290     -0.0865
     83  CZ        41.0000   -0.2810  -15.0430 C.cat 290  ARG290      0.5346
     84  NH1       41.7310    0.6590  -15.6050 N.pl3 290  ARG290      0.1354
     85  NH2       40.4020   -0.0550  -13.9210 N.pl3 290  ARG290      0.1354
     86  N         47.1170    2.1390   -1.8500 N.3   428  LEU428     -0.1245
     87  CA        46.4710    3.3090   -2.4130 C.3   428  LEU428      0.1561
     88  C         47.1240    4.5900   -1.8910 C.2   428  LEU428      0.2260
     89  O         47.5110    5.4590   -2.6580 O.2   428  LEU428     -0.2867
     90  CB        44.9540    3.2480   -2.0990 C.3   428  LEU428      0.0270
     91  CG        44.0090    4.2170   -2.7640 C.3   428  LEU428      0.0019
     92  CD1       44.2870    4.2740   -4.2720 C.3   428  LEU428      0.0001
     93  CD2       42.5600    3.7820   -2.4720 C.3   428  LEU428      0.0001
     94  N         49.7930    5.0210   -4.9500 N.3   432  VAL432     -0.1231
     95  CA        48.9230    5.5500   -6.0100 C.3   432  VAL432      0.1692
     96  C         48.7260    7.0450   -5.8880 C.2   432  VAL432      0.2592
     97  O         48.8840    7.7720   -6.8640 O.2   432  VAL432     -0.2718
     98  CB        47.5900    4.8090   -6.0230 C.3   432  VAL432      0.0266
     99  CG1       46.6030    5.3820   -7.0690 C.3   432  VAL432      0.0020
    100  CG2       47.8430    3.3130   -6.2100 C.3   432  VAL432      0.0020
    101  N         48.3600    7.5180   -4.7070 N.am  433  PHE433     -0.1976
    102  CA        48.2230    8.9480   -4.4790 C.3   433  PHE433      0.1639
    103  C         49.5290    9.6800   -4.7290 C.2   433  PHE433      0.2290
    104  O         50.6160    9.1620   -4.4600 O.2   433  PHE433     -0.2864
    105  CB        47.8080    9.2710   -3.0430 C.3   433  PHE433      0.0560
    106  CG        46.3940    8.9000   -2.6710 C.ar  433  PHE433     -0.0200
    107  CD1       45.4820    8.4100   -3.5800 C.ar  433  PHE433     -0.0042
    108  CD2       45.9980    9.0300   -1.3680 C.ar  433  PHE433     -0.0042
    109  CE1       44.1840    8.0680   -3.1770 C.ar  433  PHE433     -0.0003
    110  CE2       44.7180    8.6830   -0.9630 C.ar  433  PHE433     -0.0003
    111  CZ        43.8070    8.2130   -1.8800 C.ar  433  PHE433     -0.0000
    112  N         47.8520   14.7850   -3.2890 N.3   437  GLU437     -0.1245
    113  CA        46.6650   14.0210   -2.9240 C.3   437  GLU437      0.1567
    114  C         46.7640   13.5440   -1.4770 C.2   437  GLU437      0.2260
    115  O         45.7550   13.5010   -0.7550 O.2   437  GLU437     -0.2867
    116  CB        46.3910   12.8890   -3.8860 C.3   437  GLU437      0.0388
    117  CG        45.9620   13.4070   -5.2620 C.3   437  GLU437      0.1160
    118  CD        45.9420   12.3700   -6.3420 C.2   437  GLU437      0.3649
    119  OE1       45.1970   12.5390   -7.3050 O.co2 437  GLU437     -0.2457
    120  OE2       46.6550   11.3700   -6.2470 O.co2 437  GLU437     -0.2457
@<TRIPOS>BOND
     1    78    77    2
     2    77    76    1
     3    61    60    2
     4    60    59    1
     5    76    79    1
     6    76    75    1
     7    62    64    1
     8    62    59    1
     9    62    63    1
    10    79    80    1
    11    58    59    1
    12    63    65    1
    13    80    81    1
    14    81    82    1
    15    82    83    2
    16    84    83    1
    17    44    43    2
    18    73    72    2
    19    83    85    1
    20    69    68    2
    21    43    45   am
    22    43    42    1
    23    72    71    1
    24    72    74   am
    25    68    67    1
    26    39    42    1
    27    39    38    1
    28    39    40    1
    29    70    71    1
    30    70    67    1
    31    67    66    1
    32    40    41    2
    33    46    47    1
    34    47    48    1
    35    47    50    1
    36    54    52   ar
    37    54    56   ar
    38    57    56    1
    39    52    51   ar
    40    48    49    2
    41    56    55   ar
    42    51    50    1
    43    51    53   ar
    44    37    35    1
    45    55    53   ar
    46    35    36    1
    47    35    34    2
    48    34    33    1
    49     5     2    1
    50     5     6    1
    51    33    32    1
    52    19    18    1
    53     2     1    1
    54     2     3    1
    55     6     7    1
    56     7     1    1
    57    32    31    1
    58   119   118   ar
    59    99    98    1
    60    97    96    2
    61     4     3    2
    62    18    17   ar
    63    18    16   ar
    64    31    28    1
    65   118   120   ar
    66   118   117    1
    67   100    98    1
    68    17    15   ar
    69    98    95    1
    70    95    96    1
    71    95    94    1
    72    28    27    1
    73    28    29    1
    74    96   101   am
    75    30    29    2
    76    16    14   ar
    77    24    25    1
    78    24    21    1
    79    23    22    2
    80   117   116    1
    81    27    22   am
    82    22    21    1
    83    25    26    1
    84    15    13   ar
    85   103   102    1
    86   103   104    2
    87   101   102    1
    88   102   105    1
    89    21    20    1
    90    92    91    1
    91    14    13   ar
    92   116   113    1
    93    26    20    1
    94    13    12    1
    95   107   109   ar
    96   107   106   ar
    97   112   113    1
    98   109   111   ar
    99   105   106    1
   100   113   114    1
   101    91    93    1
   102    91    90    1
   103   106   108   ar
   104    89    88    2
   105    87    90    1
   106    87    88    1
   107    87    86    1
   108    12     9    1
   109    11    10    2
   110   111   110   ar
   111     9    10    1
   112     9     8    1
   113   114   115    2
   114   108   110   ar
