@<TRIPOS>MOLECULE
tmp/1gwjA00.pdb
 202 199 0 0 0
SMALL
GASTEIGER

@<TRIPOS>ATOM
      1  N         14.0160   51.9010   32.0290 N.3    26  ALA26      -0.1231
      2  CA        14.6570   51.7410   30.7460 C.3    26  ALA26       0.1679
      3  C         14.1940   52.7990   29.7440 C.2    26  ALA26       0.2434
      4  O         13.0840   53.3060   29.8360 O.2    26  ALA26      -0.2733
      5  CB        14.3740   50.3420   30.2130 C.3    26  ALA26       0.0304
      6  N         15.0510   53.1400   28.7650 N.am   27  PRO27      -0.2718
      7  CA        14.6990   54.1410   27.7440 C.3    27  PRO27       0.1535
      8  C         13.5040   53.6160   26.9150 C.2    27  PRO27       0.2598
      9  O         13.5130   52.4850   26.4350 O.2    27  PRO27      -0.2715
     10  CB        15.9820   54.2590   26.9220 C.3    27  PRO27       0.0310
     11  CG        16.5790   52.8950   27.0170 C.3    27  PRO27       0.0237
     12  CD        16.3590   52.5260   28.4730 C.3    27  PRO27       0.0939
     13  N         12.4820   54.4430   26.7580 N.am   28  LEU28      -0.1964
     14  CA        11.2780   54.0320   26.0570 C.3    28  LEU28       0.1728
     15  C         10.7000   55.0830   25.1180 C.2    28  LEU28       0.2617
     16  O         10.2210   56.1300   25.5520 O.2    28  LEU28      -0.2715
     17  CB        10.2050   53.6530   27.0930 C.3    28  LEU28       0.0311
     18  CG        10.5720   52.5530   28.0870 C.3    28  LEU28       0.0022
     19  CD1        9.8850   52.8060   29.4590 C.3    28  LEU28       0.0001
     20  CD2       10.1400   51.2330   27.5080 C.3    28  LEU28       0.0001
     21  N         10.7190   54.8020   23.8270 N.am   29  THR29      -0.1937
     22  CA        10.1640   55.7370   22.8540 C.3    29  THR29       0.2028
     23  C          8.6550   55.7470   23.0380 C.2    29  THR29       0.2642
     24  O          8.0230   54.7010   23.1110 O.2    29  THR29      -0.2714
     25  CB        10.4990   55.3110   21.4290 C.3    29  THR29       0.1808
     26  OG1       11.9030   55.4790   21.2110 O.3    29  THR29      -0.2208
     27  CG2        9.6990   56.0460   20.3720 C.3    29  THR29       0.0379
     28  N          8.0870   56.9360   23.1430 N.am   30  ARG30      -0.1977
     29  CA         6.6560   57.0810   23.3440 C.3    30  ARG30       0.1597
     30  C          5.9860   57.9490   22.2620 C.2    30  ARG30       0.2287
     31  O          4.7560   57.9660   22.1680 O.2    30  ARG30      -0.2864
     32  CB         6.3760   57.6880   24.7310 C.3    30  ARG30       0.0334
     33  CG         6.9440   56.9040   25.9140 C.3    30  ARG30       0.0492
     34  CD         6.5210   55.4270   25.8840 C.3    30  ARG30       0.2205
     35  NE         5.0690   55.2880   25.9020 N.pl3  30  ARG30      -0.0865
     36  CZ         4.3200   55.2810   26.9950 C.cat  30  ARG30       0.5346
     37  NH1        4.8740   55.3930   28.2030 N.pl3  30  ARG30       0.1354
     38  NH2        2.9960   55.1960   26.8740 N.pl3  30  ARG30       0.1354
     39  N         14.6560   57.5240   23.6870 N.3    59  ALA59      -0.1245
     40  CA        15.7350   57.7980   22.7370 C.3    59  ALA59       0.1562
     41  C         15.4330   59.1760   22.1540 C.2    59  ALA59       0.2260
     42  O         14.2840   59.4680   21.8030 O.2    59  ALA59      -0.2867
     43  CB        15.7540   56.7260   21.6200 C.3    59  ALA59       0.0290
     44  N         19.2630   59.7050   26.5290 N.3   101  GLN101     -0.1245
     45  CA        19.8380   58.6850   25.6360 C.3   101  GLN101      0.1566
     46  C         20.0100   59.2970   24.2470 C.2   101  GLN101      0.2260
     47  O         19.0330   59.7160   23.6350 O.2   101  GLN101     -0.2867
     48  CB        18.9330   57.4460   25.5610 C.3   101  GLN101      0.0367
     49  CG        19.4690   56.3540   24.6460 C.3   101  GLN101      0.0905
     50  CD        18.4990   55.1880   24.4800 C.2   101  GLN101      0.2608
     51  OE1       17.3630   55.3740   24.0370 O.2   101  GLN101     -0.2717
     52  NE2       18.9470   53.9780   24.8250 N.am  101  GLN101     -0.0878
     53  N         20.3530   59.3760   20.4980 N.3   103  TRP103     -0.1241
     54  CA        19.8690   58.5450   19.4160 C.3   103  TRP103      0.1605
     55  C         20.2120   58.9160   17.9770 C.2   103  TRP103      0.2264
     56  O         20.2310   60.0910   17.5980 O.2   103  TRP103     -0.2867
     57  CB        18.3550   58.4700   19.5510 C.3   103  TRP103      0.0550
     58  CG        17.7100   57.3570   18.8230 C.ar  103  TRP103      0.0003
     59  CD1       18.2720   56.1560   18.4840 C.ar  103  TRP103      0.0946
     60  CD2       16.3140   57.2390   18.5450 C.ar  103  TRP103      0.0152
     61  NE1       17.3010   55.2870   18.0410 N.ar  103  TRP103     -0.2442
     62  CE2       16.0850   55.9280   18.0730 C.ar  103  TRP103      0.0810
     63  CE3       15.2220   58.1100   18.6900 C.ar  103  TRP103      0.0012
     64  CZ2       14.8120   55.4670   17.7160 C.ar  103  TRP103      0.0191
     65  CZ3       13.9500   57.6490   18.3470 C.ar  103  TRP103      0.0001
     66  CH2       13.7590   56.3280   17.8730 C.ar  103  TRP103      0.0015
     67  N         23.2740   55.5520   22.9380 N.3   183  HIS183     -0.1241
     68  CA        22.4840   54.4410   22.4470 C.3   183  HIS183      0.1621
     69  C         23.2830   53.7060   21.3870 C.2   183  HIS183      0.2264
     70  O         23.5430   54.2650   20.3190 O.2   183  HIS183     -0.2867
     71  CB        21.1780   54.9370   21.8320 C.3   183  HIS183      0.0745
     72  CG        20.1880   53.8470   21.5920 C.ar  183  HIS183      0.0817
     73  ND1       20.5360   52.5100   21.6180 N.ar  183  HIS183     -0.2268
     74  CD2       18.8590   53.8850   21.3360 C.ar  183  HIS183      0.1154
     75  CE1       19.4630   51.7770   21.3890 C.ar  183  HIS183      0.1986
     76  NE2       18.4290   52.5850   21.2110 N.ar  183  HIS183     -0.2212
     77  N         19.9290   47.8240   19.9410 N.3   186  ASN186     -0.1240
     78  CA        18.7460   47.7100   19.1300 C.3   186  ASN186      0.1653
     79  C         18.9510   48.0630   17.6770 C.2   186  ASN186      0.2266
     80  O         18.0690   48.6230   17.0280 O.2   186  ASN186     -0.2867
     81  CB        17.6500   48.5740   19.7160 C.3   186  ASN186      0.1155
     82  CG        17.3800   48.2170   21.1460 C.2   186  ASN186      0.2627
     83  OD1       17.6210   47.0800   21.5910 O.2   186  ASN186     -0.2716
     84  ND2       16.8490   49.1940   21.8960 N.am  186  ASN186     -0.0877
     85  N         24.4710   51.9330   25.9720 N.3   235  ARG235     -0.1245
     86  CA        23.5910   50.7760   25.8730 C.3   235  ARG235      0.1563
     87  C         24.0810   49.8700   24.7520 C.2   235  ARG235      0.2260
     88  O         24.5000   50.3570   23.6900 O.2   235  ARG235     -0.2867
     89  CB        22.1400   51.2110   25.6470 C.3   235  ARG235      0.0307
     90  CG        21.1790   50.0940   26.0300 C.3   235  ARG235      0.0489
     91  CD        19.7160   50.4570   26.0050 C.3   235  ARG235      0.2205
     92  NE        19.0260   49.6190   26.9790 N.pl3 235  ARG235     -0.0865
     93  CZ        17.7430   49.2770   26.9240 C.cat 235  ARG235      0.5346
     94  NH1       16.9730   49.6930   25.9250 N.pl3 235  ARG235      0.1354
     95  NH2       17.2320   48.5190   27.8850 N.pl3 235  ARG235      0.1354
     96  N         20.6650   45.1030   26.9140 N.3   272  ASN272     -0.1240
     97  CA        19.2710   44.7720   26.6770 C.3   272  ASN272      0.1653
     98  C         19.3580   43.3270   26.1740 C.2   272  ASN272      0.2266
     99  O         19.7720   43.0700   25.0450 O.2   272  ASN272     -0.2867
    100  CB        18.6640   45.7020   25.6160 C.3   272  ASN272      0.1155
    101  CG        17.1560   45.5530   25.4980 C.2   272  ASN272      0.2627
    102  OD1       16.4840   45.1590   26.4510 O.2   272  ASN272     -0.2716
    103  ND2       16.6170   45.8930   24.3360 N.am  272  ASN272     -0.0877
    104  N         18.5660   44.5180   31.2260 N.3   302  CYS302     -0.1221
    105  CA        17.1480   44.7700   31.0230 C.3   302  CYS302      0.1808
    106  C         16.5100   43.7050   30.1430 C.2   302  CYS302      0.2602
    107  O         17.1900   43.0730   29.3320 O.2   302  CYS302     -0.2717
    108  CB        16.9970   46.1430   30.3670 C.3   302  CYS302      0.0970
    109  SG        15.3280   46.7060   30.1750 S.3   302  CYS302     -0.0800
    110  N         15.2050   43.5000   30.3110 N.am  303  GLY303     -0.1942
    111  CA        14.5100   42.5220   29.4840 C.3   303  GLY303      0.2014
    112  C         13.7070   41.4370   30.1770 C.2   303  GLY303      0.2639
    113  O         14.2640   40.4600   30.6680 O.2   303  GLY303     -0.2714
    114  N         12.3890   41.6190   30.2020 N.am  304  ASN304     -0.1958
    115  CA        11.4640   40.6660   30.8100 C.3   304  ASN304      0.1819
    116  C         11.7970   40.3780   32.2810 C.2   304  ASN304      0.2621
    117  O         11.6260   39.2580   32.7700 O.2   304  ASN304     -0.2715
    118  CB        11.4680   39.3710   29.9920 C.3   304  ASN304      0.1195
    119  CG        10.9930   39.5880   28.5600 C.2   304  ASN304      0.2630
    120  OD1        9.8120   39.8810   28.3200 O.2   304  ASN304     -0.2716
    121  ND2       11.9130   39.4580   27.6020 N.am  304  ASN304     -0.0877
    122  N         12.2680   41.3940   32.9890 N.am  305  TYR305     -0.1974
    123  CA        12.6260   41.2230   34.3830 C.3   305  TYR305      0.1639
    124  C         11.5150   41.5230   35.3580 C.2   305  TYR305      0.2290
    125  O         10.6920   42.4100   35.1660 O.2   305  TYR305     -0.2864
    126  CB        13.8570   42.0730   34.7380 C.3   305  TYR305      0.0560
    127  CG        15.1680   41.3680   34.4790 C.ar  305  TYR305     -0.0198
    128  CD1       15.5860   40.3250   35.3020 C.ar  305  TYR305     -0.0009
    129  CD2       15.9710   41.7140   33.3890 C.ar  305  TYR305     -0.0009
    130  CE1       16.7760   39.6470   35.0530 C.ar  305  TYR305      0.0417
    131  CE2       17.1520   41.0420   33.1250 C.ar  305  TYR305      0.0417
    132  CZ        17.5550   40.0040   33.9640 C.ar  305  TYR305      0.1957
    133  OH        18.7440   39.3330   33.7040 O.3   305  TYR305     -0.2866
    134  N         17.0620   47.4430   34.7600 N.3   323  ALA323     -0.1231
    135  CA        16.1400   48.3780   34.1590 C.3   323  ALA323      0.1694
    136  C         14.8440   47.6630   33.8240 C.2   323  ALA323      0.2592
    137  O         14.8330   46.4550   33.5850 O.2   323  ALA323     -0.2718
    138  CB        16.7410   48.9700   32.9030 C.3   323  ALA323      0.0304
    139  N         13.7540   48.4130   33.8140 N.am  324  PHE324     -0.1962
    140  CA        12.4390   47.8660   33.5060 C.3   324  PHE324      0.1771
    141  C         11.7820   48.8130   32.5230 C.2   324  PHE324      0.2620
    142  O         11.7010   50.0170   32.7710 O.2   324  PHE324     -0.2715
    143  CB        11.5920   47.7650   34.7750 C.3   324  PHE324      0.0574
    144  CG        12.1200   46.7820   35.7650 C.ar  324  PHE324     -0.0200
    145  CD1       11.6590   45.4700   35.7890 C.ar  324  PHE324     -0.0042
    146  CD2       13.1300   47.1440   36.6390 C.ar  324  PHE324     -0.0042
    147  CE1       12.2000   44.5320   36.6680 C.ar  324  PHE324     -0.0003
    148  CE2       13.6850   46.2090   37.5320 C.ar  324  PHE324     -0.0003
    149  CZ        13.2180   44.9070   37.5380 C.ar  324  PHE324     -0.0000
    150  N         11.3180   48.2710   31.4040 N.am  325  GLY325     -0.1940
    151  CA        10.6780   49.1110   30.4120 C.3   325  GLY325      0.2014
    152  C          9.1710   49.1610   30.5320 C.2   325  GLY325      0.2639
    153  O          8.6140   50.0470   31.1670 O.2   325  GLY325     -0.2714
    154  N          8.5080   48.2000   29.9100 N.am  326  ARG326     -0.1963
    155  CA         7.0540   48.1480   29.9160 C.3   326  ARG326      0.1714
    156  C          6.4420   48.2730   31.3060 C.2   326  ARG326      0.2458
    157  O          5.4990   49.0410   31.4930 O.2   326  ARG326     -0.2730
    158  CB         6.5820   46.8800   29.2000 C.3   326  ARG326      0.0347
    159  CG         6.7750   46.9860   27.6880 C.3   326  ARG326      0.0492
    160  CD         6.6870   45.6470   26.9940 C.3   326  ARG326      0.2205
    161  NE         7.7600   44.7800   27.4530 N.pl3 326  ARG326     -0.0865
    162  CZ         8.0330   43.5960   26.9250 C.cat 326  ARG326      0.5346
    163  NH1        9.0280   42.8630   27.4050 N.pl3 326  ARG326      0.1354
    164  NH2        7.3080   43.1480   25.9080 N.pl3 326  ARG326      0.1354
    165  N          6.9700   47.5430   32.3000 N.am  327  PRO327     -0.2727
    166  CA         6.4130   47.6490   33.6490 C.3   327  PRO327      0.1402
    167  C          6.4650   49.1090   34.1720 C.2   327  PRO327      0.2269
    168  O          5.6030   49.5210   34.9310 O.2   327  PRO327     -0.2865
    169  CB         7.2990   46.6990   34.4640 C.3   327  PRO327      0.0296
    170  CG         7.7420   45.6920   33.4480 C.3   327  PRO327      0.0237
    171  CD         8.0490   46.5420   32.2630 C.3   327  PRO327      0.0939
    172  N          6.1530   51.6250   32.2500 N.3   329  ILE329     -0.1245
    173  CA         5.1860   52.3650   31.4530 C.3   329  ILE329      0.1561
    174  C          3.8360   52.2880   32.1720 C.2   329  ILE329      0.2260
    175  O          3.1570   53.2950   32.3470 O.2   329  ILE329     -0.2867
    176  CB         5.0400   51.7780   30.0200 C.3   329  ILE329      0.0252
    177  CG1        6.1790   52.3020   29.1230 C.3   329  ILE329      0.0019
    178  CG2        3.6810   52.1680   29.4070 C.3   329  ILE329      0.0019
    179  CD1        6.7270   53.7040   29.3780 C.3   329  ILE329      0.0001
    180  N          1.3340   52.6490   23.3540 N.3   352  PHE352     -0.1227
    181  CA         2.7550   52.7920   23.6150 C.3   352  PHE352      0.1736
    182  C          3.3410   53.9290   22.7660 C.2   352  PHE352      0.2595
    183  O          4.2500   54.6190   23.2090 O.2   352  PHE352     -0.2718
    184  CB         3.5080   51.4850   23.2870 C.3   352  PHE352      0.0547
    185  CG         3.4140   50.4310   24.3470 C.ar  352  PHE352     -0.0202
    186  CD1        2.7070   50.6580   25.5350 C.ar  352  PHE352     -0.0042
    187  CD2        4.0430   49.1930   24.1710 C.ar  352  PHE352     -0.0042
    188  CE1        2.6340   49.6650   26.5190 C.ar  352  PHE352     -0.0003
    189  CE2        3.9670   48.1990   25.1690 C.ar  352  PHE352     -0.0003
    190  CZ         3.2620   48.4420   26.3310 C.ar  352  PHE352     -0.0000
    191  N          2.8100   54.1190   21.5600 N.am  353  TYR353     -0.1976
    192  CA         3.3040   55.1460   20.6320 C.3   353  TYR353      0.1639
    193  C          2.2500   56.1370   20.1790 C.2   353  TYR353      0.2290
    194  O          1.1000   55.7730   19.9830 O.2   353  TYR353     -0.2864
    195  CB         3.8830   54.4850   19.3730 C.3   353  TYR353      0.0560
    196  CG         5.0090   53.5460   19.6340 C.ar  353  TYR353     -0.0198
    197  CD1        6.2710   54.0040   19.8370 C.ar  353  TYR353     -0.0009
    198  CD2        4.7920   52.1650   19.7070 C.ar  353  TYR353     -0.0009
    199  CE1        7.1930   53.1440   20.1100 C.ar  353  TYR353      0.0417
    200  CE2        5.8330   51.2610   19.9660 C.ar  353  TYR353      0.0417
    201  CZ         7.0470   51.7350   20.1700 C.ar  353  TYR353      0.1957
    202  OH         8.1440   50.8570   20.3640 O.3   353  TYR353     -0.2866
@<TRIPOS>BOND
     1    80    79    2
     2    56    55    2
     3    79    78    1
     4    64    66   ar
     5    64    62   ar
     6    66    65   ar
     7    55    54    1
     8    61    62   ar
     9    61    59   ar
    10    62    60   ar
    11    65    63   ar
    12    59    58   ar
    13    60    63   ar
    14    60    58   ar
    15    58    57    1
    16    78    81    1
    17    78    77    1
    18   195   196    1
    19   195   192    1
    20    54    57    1
    21    54    53    1
    22   196   198   ar
    23   196   197   ar
    24   198   200   ar
    25    81    82    1
    26   197   199   ar
    27   200   201   ar
    28   194   193    2
    29   199   201   ar
    30   201   202    1
    31   193   192    1
    32    70    69    2
    33    27    25    1
    34   192   191    1
    35    82    83    2
    36    82    84   am
    37    26    25    1
    38    76    74   ar
    39    76    75   ar
    40    74    72   ar
    41    69    68    1
    42    75    73   ar
    43    25    22    1
    44   191   182   am
    45    72    73   ar
    46    72    71    1
    47    43    40    1
    48    42    41    2
    49    71    68    1
    50    41    40    1
    51    31    30    2
    52    30    29    1
    53    68    67    1
    54    40    39    1
    55   182   183    2
    56   182   181    1
    57    22    23    1
    58    22    21    1
    59    23    24    2
    60    23    28   am
    61    28    29    1
    62   184   181    1
    63   184   185    1
    64    29    32    1
    65   180   181    1
    66    47    46    2
    67    88    87    2
    68    21    15   am
    69    51    50    2
    70   187   185   ar
    71   187   189   ar
    72    46    45    1
    73   103   101   am
    74   185   186   ar
    75    50    49    1
    76    50    52   am
    77    49    48    1
    78    32    33    1
    79    87    86    1
    80    99    98    2
    81    15    16    2
    82    15    14    1
    83   189   190   ar
    84   101   100    1
    85   101   102    2
    86   186   188   ar
    87    48    45    1
    88   100    97    1
    89    45    44    1
    90    89    86    1
    91    89    90    1
    92    86    85    1
    93    34    35    1
    94    34    33    1
    95    35    36    2
    96   164   162    1
    97    94    93    1
    98    91    90    1
    99    91    92    1
   100    14    13    1
   101    14    17    1
   102    98    97    1
   103   190   188   ar
   104     9     8    2
   105    97    96    1
   106    13     8   am
   107    38    36    1
   108     8     7    1
   109    10    11    1
   110    10     7    1
   111    93    92    2
   112    93    95    1
   113   162   163    1
   114   162   161    2
   115   160   161    1
   116   160   159    1
   117    36    37    1
   118    11    12    1
   119    17    18    1
   120    20    18    1
   121   121   119   am
   122   159   158    1
   123     7     6    1
   124    18    19    1
   125   120   119    2
   126    12     6    1
   127   119   118    1
   128     6     3   am
   129   177   179    1
   130   177   176    1
   131   158   155    1
   132   107   106    2
   133   178   176    1
   134   111   112    1
   135   111   110    1
   136     3     4    2
   137     3     2    1
   138   154   155    1
   139   154   152   am
   140   155   156    1
   141   118   115    1
   142   176   173    1
   143   106   110   am
   144   106   105    1
   145   109   108    1
   146   112   114   am
   147   112   113    2
   148   114   115    1
   149     5     2    1
   150   108   105    1
   151   151   152    1
   152   151   150    1
   153   152   153    2
   154     2     1    1
   155   115   116    1
   156   105   104    1
   157   156   157    2
   158   156   165   am
   159   150   141   am
   160   173   174    1
   161   173   172    1
   162   174   175    2
   163   171   165    1
   164   171   170    1
   165   116   117    2
   166   116   122   am
   167   165   166    1
   168   141   142    2
   169   141   140    1
   170   138   135    1
   171   122   123    1
   172   131   129   ar
   173   131   132   ar
   174   129   127   ar
   175   170   169    1
   176   140   139    1
   177   140   143    1
   178   137   136    2
   179   166   167    1
   180   166   169    1
   181   133   132    1
   182   139   136   am
   183   136   135    1
   184   132   130   ar
   185   135   134    1
   186   167   168    2
   187   123   126    1
   188   123   124    1
   189   127   126    1
   190   127   128   ar
   191   143   144    1
   192   130   128   ar
   193   125   124    2
   194   144   145   ar
   195   144   146   ar
   196   145   147   ar
   197   146   148   ar
   198   147   149   ar
   199   148   149   ar
