@<TRIPOS>MOLECULE
tmp/1gwmA00.pdb
 132 127 0 0 0
SMALL
GASTEIGER

@<TRIPOS>ATOM
      1  N         45.6980    4.9500   14.2560 N.3    23  ASN23      -0.1225
      2  CA        44.7480    4.8900   15.3670 C.3    23  ASN23       0.1785
      3  C         44.7800    6.1970   16.1290 C.2    23  ASN23       0.2597
      4  O         45.7420    6.4800   16.8520 O.2    23  ASN23      -0.2718
      5  CB        45.0670    3.7120   16.2870 C.3    23  ASN23       0.1169
      6  CG        44.0800    3.5860   17.4300 C.2    23  ASN23       0.2627
      7  OD1       43.0150    4.1950   17.4000 O.2    23  ASN23      -0.2716
      8  ND2       44.4080    2.7570   18.4360 N.am   23  ASN23      -0.0877
      9  N         43.7300    7.0030   15.9720 N.am   24  TRP24      -0.1962
     10  CA        43.5380    8.2280   16.7140 C.3    24  TRP24       0.1771
     11  C         42.6460    7.9970   17.9320 C.2    24  TRP24       0.2620
     12  O         41.9550    8.9000   18.4170 O.2    24  TRP24      -0.2715
     13  CB        42.9030    9.3040   15.8230 C.3    24  TRP24       0.0590
     14  CG        43.8150    9.8510   14.7540 C.ar   24  TRP24       0.0006
     15  CD1       44.9800    9.3200   14.2590 C.ar   24  TRP24       0.0946
     16  CD2       43.6180   11.0720   14.0590 C.ar   24  TRP24       0.0152
     17  NE1       45.5100   10.1590   13.3090 N.ar   24  TRP24      -0.2442
     18  CE2       44.6870   11.2330   13.1540 C.ar   24  TRP24       0.0810
     19  CE3       42.6420   12.0700   14.1150 C.ar   24  TRP24       0.0012
     20  CZ2       44.7990   12.3480   12.3090 C.ar   24  TRP24       0.0191
     21  CZ3       42.7680   13.1740   13.2620 C.ar   24  TRP24       0.0001
     22  CH2       43.8390   13.2920   12.3890 C.ar   24  TRP24       0.0015
     23  N         42.6580    6.7690   18.4310 N.am   25  GLY25      -0.1940
     24  CA        41.8840    6.3880   19.5920 C.3    25  GLY25       0.2014
     25  C         42.4290    6.9770   20.8680 C.2    25  GLY25       0.2638
     26  O         43.4030    7.7310   20.8800 O.2    25  GLY25      -0.2714
     27  N         41.7790    6.6330   21.9680 N.am   26  TRP26      -0.1973
     28  CA        42.0980    7.1950   23.2750 C.3    26  TRP26       0.1640
     29  C         41.6440    6.2110   24.3420 C.2    26  TRP26       0.2290
     30  O         40.6900    5.4590   24.1690 O.2    26  TRP26      -0.2864
     31  CB        41.3870    8.5610   23.4510 C.3    26  TRP26       0.0576
     32  CG        39.8760    8.4980   23.4070 C.ar   26  TRP26       0.0006
     33  CD1       39.0390    8.4020   24.4860 C.ar   26  TRP26       0.0946
     34  CD2       39.0210    8.5220   22.2400 C.ar   26  TRP26       0.0152
     35  NE1       37.7340    8.3500   24.0620 N.ar   26  TRP26      -0.2442
     36  CE2       37.6890    8.4210   22.6950 C.ar   26  TRP26       0.0810
     37  CE3       39.2450    8.5990   20.8530 C.ar   26  TRP26       0.0012
     38  CZ2       36.5970    8.4010   21.8280 C.ar   26  TRP26       0.0191
     39  CZ3       38.1580    8.5920   19.9970 C.ar   26  TRP26       0.0001
     40  CH2       36.8410    8.5130   20.4890 C.ar   26  TRP26       0.0015
     41  N         37.4820    6.1250   31.2030 N.3    45  LYS45      -0.1231
     42  CA        37.9780    6.9460   30.0970 C.3    45  LYS45       0.1693
     43  C         37.0060    7.0280   28.9080 C.2    45  LYS45       0.2592
     44  O         37.2070    7.8430   27.9950 O.2    45  LYS45      -0.2718
     45  CB        39.3410    6.4620   29.6020 C.3    45  LYS45       0.0285
     46  CG        40.4780    6.6560   30.6340 C.3    45  LYS45       0.0035
     47  CD        40.6250    8.0700   31.1740 C.3    45  LYS45       0.0206
     48  CE        41.8200    8.1710   32.1250 C.3    45  LYS45       0.1093
     49  NZ        42.0690    9.5800   32.5200 N.3    45  LYS45      -0.1314
     50  N         35.9690    6.1970   28.8910 N.am   46  TYR46      -0.1976
     51  CA        35.1060    6.0700   27.7220 C.3    46  TYR46       0.1639
     52  C         35.9650    5.9210   26.4680 C.2    46  TYR46       0.2290
     53  O         35.7840    6.5970   25.4470 O.2    46  TYR46      -0.2864
     54  CB        34.1190    7.2400   27.6210 C.3    46  TYR46       0.0560
     55  CG        33.2830    7.3900   28.8630 C.ar   46  TYR46      -0.0198
     56  CD1       32.0890    6.6930   29.0020 C.ar   46  TYR46      -0.0009
     57  CD2       33.6830    8.2030   29.9120 C.ar   46  TYR46      -0.0009
     58  CE1       31.3210    6.7890   30.1480 C.ar   46  TYR46       0.0417
     59  CE2       32.9110    8.3140   31.0650 C.ar   46  TYR46       0.0417
     60  CZ        31.7370    7.5990   31.1720 C.ar   46  TYR46       0.1957
     61  OH        30.9570    7.7180   32.3130 O.3    46  TYR46      -0.2866
     62  N         29.4970    1.9530   21.3190 N.3    74  LYS74      -0.1245
     63  CA        29.0120    3.0000   20.4250 C.3    74  LYS74       0.1561
     64  C         29.9040    3.0370   19.1820 C.2    74  LYS74       0.2260
     65  O         31.1360    3.1410   19.2830 O.2    74  LYS74      -0.2867
     66  CB        29.0090    4.3250   21.1550 C.3    74  LYS74       0.0271
     67  CG        28.4540    5.4600   20.3280 C.3    74  LYS74       0.0035
     68  CD        28.3970    6.8180   21.0210 C.3    74  LYS74       0.0206
     69  CE        27.7790    6.8820   22.3590 C.3    74  LYS74       0.1093
     70  NZ        27.9290    8.2710   22.9430 N.3    74  LYS74      -0.1314
     71  N         30.8050    5.2070   15.9390 N.3    76  LEU76      -0.1245
     72  CA        30.7390    6.5620   15.3820 C.3    76  LEU76       0.1561
     73  C         31.5660    6.6390   14.1390 C.2    76  LEU76       0.2260
     74  O         32.5080    5.8560   13.9200 O.2    76  LEU76      -0.2867
     75  CB        31.1940    7.6440   16.3610 C.3    76  LEU76       0.0270
     76  CG        30.6290    7.6000   17.7760 C.3    76  LEU76       0.0019
     77  CD1       31.5560    6.8680   18.7200 C.3    76  LEU76       0.0001
     78  CD2       30.3740    9.0190   18.3050 C.3    76  LEU76       0.0001
     79  N         33.5780   10.0290   11.9530 N.3    78  GLU78      -0.1245
     80  CA        33.9110   11.4500   12.0690 C.3    78  GLU78       0.1567
     81  C         34.4860   11.9490   10.7620 C.2    78  GLU78       0.2260
     82  O         35.1930   11.2250   10.0480 O.2    78  GLU78      -0.2867
     83  CB        34.9220   11.7430   13.2030 C.3    78  GLU78       0.0388
     84  CG        34.7310   10.9590   14.4740 C.3    78  GLU78       0.1160
     85  CD        35.6500   11.3890   15.6060 C.2    78  GLU78       0.3649
     86  OE1       36.0020   12.5630   15.6960 O.co2  78  GLU78      -0.2457
     87  OE2       36.0200   10.5520   16.4610 O.co2  78  GLU78      -0.2457
     88  N         35.7770   18.4380   12.0980 N.3    83  ASP83      -0.1239
     89  CA        35.6720   17.9440   13.4670 C.3    83  ASP83       0.1674
     90  C         34.2250   17.6210   13.8370 C.2    83  ASP83       0.2266
     91  O         33.7200   17.9960   14.8750 O.2    83  ASP83      -0.2867
     92  CB        36.2870   18.9290   14.4530 C.3    83  ASP83       0.1410
     93  CG        36.4780   18.3400   15.8240 C.2    83  ASP83       0.3668
     94  OD1       36.6570   17.1030   15.9280 O.co2  83  ASP83      -0.2456
     95  OD2       36.4500   19.0540   16.8600 O.co2  83  ASP83      -0.2456
     96  N         31.2640   14.6680   14.3410 N.3    85  LYS85      -0.1197
     97  CA        31.0570   13.2510   14.6580 C.3    85  LYS85       0.1778
     98  C         29.6140   12.8620   14.4460 C.2    85  LYS85       0.2305
     99  O         28.7170   13.6980   14.4820 O.2    85  LYS85      -0.2863
    100  CB        31.4180   12.8920   16.0870 C.2    85  LYS85      -0.0042
    101  CG        30.8120   13.7160   17.2140 C.2    85  LYS85      -0.0273
    102  CD        31.4980   13.6310   18.5590 C.3    85  LYS85       0.0462
    103  CE        30.4670   13.4790   19.6880 C.3    85  LYS85       0.1140
    104  NZ        29.9830   14.7950   20.1690 N.3    85  LYS85      -0.1310
    105  N         37.2680    8.8400    9.8920 N.3   112  ARG112     -0.1245
    106  CA        37.5020    8.1470   11.1440 C.3   112  ARG112      0.1563
    107  C         36.3140    7.2410   11.4260 C.2   112  ARG112      0.2260
    108  O         35.1560    7.6460   11.2830 O.2   112  ARG112     -0.2867
    109  CB        37.6830    9.1270   12.2930 C.3   112  ARG112      0.0307
    110  CG        38.9460    9.9700   12.1650 C.3   112  ARG112      0.0489
    111  CD        39.0920   11.0610   13.2300 C.3   112  ARG112      0.2205
    112  NE        39.2010   10.4870   14.5540 N.pl3 112  ARG112     -0.0865
    113  CZ        39.2840   11.1480   15.7040 C.cat 112  ARG112      0.5346
    114  NH1       39.3460   12.4650   15.7300 N.pl3 112  ARG112      0.1354
    115  NH2       39.3530   10.4870   16.8420 N.pl3 112  ARG112      0.1354
    116  N         35.0280    4.8400   14.6480 N.3   114  ASP114     -0.1239
    117  CA        35.2470    4.7290   16.0870 C.3   114  ASP114      0.1674
    118  C         34.4170    3.6020   16.6710 C.2   114  ASP114      0.2266
    119  O         33.2280    3.4790   16.3780 O.2   114  ASP114     -0.2867
    120  CB        34.8100    5.9940   16.8130 C.3   114  ASP114      0.1410
    121  CG        35.4690    7.2660   16.3340 C.2   114  ASP114      0.3668
    122  OD1       36.4510    7.2250   15.5720 O.co2 114  ASP114     -0.2456
    123  OD2       34.9540    8.3530   16.7390 O.co2 114  ASP114     -0.2456
    124  N         33.6560    2.6680   20.5590 N.3   116  GLN116     -0.1245
    125  CA        33.8060    3.2660   21.8620 C.3   116  GLN116      0.1566
    126  C         33.1390    2.4780   22.9650 C.2   116  GLN116      0.2260
    127  O         32.0070    1.9960   22.8300 O.2   116  GLN116     -0.2867
    128  CB        33.2440    4.6900   21.8410 C.3   116  GLN116      0.0367
    129  CG        33.3670    5.4040   23.1850 C.3   116  GLN116      0.0905
    130  CD        32.9540    6.8530   23.1400 C.2   116  GLN116      0.2608
    131  OE1       32.1030    7.2550   22.3320 O.2   116  GLN116     -0.2717
    132  NE2       33.5580    7.6590   24.0030 N.am  116  GLN116     -0.0878
@<TRIPOS>BOND
     1   105   106    1
     2    82    81    2
     3    81    80    1
     4   106   107    1
     5   106   109    1
     6   108   107    2
     7    79    80    1
     8    80    83    1
     9    88    89    1
    10   110   109    1
    11   110   111    1
    12    20    22   ar
    13    20    18   ar
    14    22    21   ar
    15    18    17   ar
    16    18    16   ar
    17    83    84    1
    18   111   112    1
    19    21    19   ar
    20    17    15   ar
    21    89    90    1
    22    89    92    1
    23    90    91    2
    24    74    73    2
    25    16    19   ar
    26    16    14   ar
    27    73    72    1
    28     1     2    1
    29    15    14   ar
    30    96    97    1
    31    98    99    2
    32    98    97    1
    33    92    93    1
    34    84    85    1
    35   112   113    2
    36   116   117    1
    37    97   100    1
    38    14    13    1
    39     2     3    1
    40     2     5    1
    41    72    71    1
    42    72    75    1
    43   122   121   ar
    44    85    86   ar
    45    85    87   ar
    46   113   114    1
    47   113   115    1
    48    13    10    1
    49    93    94   ar
    50    93    95   ar
    51     9     3   am
    52     9    10    1
    53   100   101    2
    54   117   118    1
    55   117   120    1
    56     3     4    2
    57     5     6    1
    58   121   123   ar
    59   121   120    1
    60    75    76    1
    61   119   118    2
    62    10    11    1
    63   101   102    1
    64     7     6    2
    65     6     8   am
    66    76    78    1
    67    76    77    1
    68    11    12    2
    69    11    23   am
    70    23    24    1
    71   102   103    1
    72    64    65    2
    73    64    63    1
    74    24    25    1
    75   103   104    1
    76    39    40   ar
    77    39    37   ar
    78    67    68    1
    79    67    66    1
    80    63    66    1
    81    63    62    1
    82    40    38   ar
    83   124   125    1
    84    37    34   ar
    85    25    26    2
    86    25    27   am
    87    68    69    1
    88    38    36   ar
    89   128   125    1
    90   128   129    1
    91   125   126    1
    92    27    28    1
    93    34    36   ar
    94    34    32   ar
    95   131   130    2
    96    69    70    1
    97    36    35   ar
    98   127   126    2
    99   130   129    1
   100   130   132   am
   101    28    31    1
   102    28    29    1
   103    32    31    1
   104    32    33   ar
   105    35    33   ar
   106    30    29    2
   107    53    52    2
   108    52    51    1
   109    54    51    1
   110    54    55    1
   111    51    50    1
   112    44    43    2
   113    55    56   ar
   114    55    57   ar
   115    50    43   am
   116    43    42    1
   117    56    58   ar
   118    45    42    1
   119    45    46    1
   120    57    59   ar
   121    42    41    1
   122    58    60   ar
   123    46    47    1
   124    59    60   ar
   125    60    61    1
   126    47    48    1
   127    48    49    1
