@<TRIPOS>MOLECULE
tmp/1gwqA01.pdb
 159 149 0 0 0
SMALL
GASTEIGER

@<TRIPOS>ATOM
      1  N         -2.2570    4.9560   33.9270 N.3    38  MET38      -0.1245
      2  CA        -1.8530    5.6560   32.7110 C.3    38  MET38       0.1570
      3  C         -1.8110    7.1540   32.9860 C.2    38  MET38       0.2261
      4  O         -1.0640    7.9020   32.3800 O.2    38  MET38      -0.2867
      5  CB        -2.7660    5.3770   31.5320 C.3    38  MET38       0.0387
      6  CG        -2.5460    4.0240   30.8660 C.3    38  MET38       0.0595
      7  SD        -0.9880    3.9330   29.9590 S.3    38  MET38      -0.1393
      8  CE        -1.1410    5.4030   28.9520 C.3    38  MET38       0.0692
      9  N          1.7580    7.8270   34.9030 N.3    41  LEU41      -0.1231
     10  CA         2.9110    7.6880   34.0320 C.3    41  LEU41       0.1693
     11  C          2.9810    8.7470   32.9310 C.2    41  LEU41       0.2592
     12  O          4.0110    9.2230   32.4670 O.2    41  LEU41      -0.2718
     13  CB         2.9120    6.3020   33.4200 C.3    41  LEU41       0.0284
     14  CG         2.8830    5.0030   34.2140 C.3    41  LEU41       0.0019
     15  CD1        3.1470    3.8820   33.1980 C.3    41  LEU41       0.0001
     16  CD2        3.8340    4.8980   35.3790 C.3    41  LEU41       0.0001
     17  N          1.8130    9.1740   32.5010 N.am   42  THR42      -0.1953
     18  CA         1.6620   10.1660   31.4390 C.3    42  THR42       0.1897
     19  C          1.8640   11.5440   31.9950 C.2    42  THR42       0.2313
     20  O          2.4520   12.4080   31.3440 O.2    42  THR42      -0.2863
     21  CB         0.3110    9.8150   30.8120 C.3    42  THR42       0.1794
     22  OG1        0.5430    9.4480   29.4440 O.3    42  THR42      -0.2208
     23  CG2       -0.7320   10.8630   30.9670 C.3    42  THR42       0.0378
     24  N          3.7590   11.9870   34.5910 N.3    44  LEU44      -0.1231
     25  CA         5.1990   12.0580   34.8680 C.3    44  LEU44       0.1693
     26  C          5.9730   12.3600   33.5800 C.2    44  LEU44       0.2591
     27  O          6.8700   13.2320   33.5570 O.2    44  LEU44      -0.2718
     28  CB         5.7220   10.8480   35.5960 C.3    44  LEU44       0.0284
     29  CG         7.2270   10.7900   35.8770 C.3    44  LEU44       0.0019
     30  CD1        7.6680   12.0030   36.6790 C.3    44  LEU44       0.0001
     31  CD2        7.5480    9.4500   36.5380 C.3    44  LEU44       0.0001
     32  N          5.5370   11.6730   32.5090 N.am   45  ALA45      -0.1980
     33  CA         6.1750   11.8940   31.2140 C.3    45  ALA45       0.1597
     34  C          6.0780   13.3270   30.7250 C.2    45  ALA45       0.2287
     35  O          7.1250   13.8760   30.3540 O.2    45  ALA45      -0.2864
     36  CB         5.6020   10.9270   30.1690 C.3    45  ALA45       0.0319
     37  N          8.3900   15.5000   32.6720 N.3    48  GLU48      -0.1245
     38  CA         9.7620   15.1860   32.3050 C.3    48  GLU48       0.1567
     39  C         10.0970   15.7110   30.9200 C.2    48  GLU48       0.2260
     40  O         11.2170   16.1830   30.6440 O.2    48  GLU48      -0.2867
     41  CB        10.0700   13.7110   32.4180 C.3    48  GLU48       0.0388
     42  CG        10.0420   13.0810   33.7780 C.3    48  GLU48       0.1160
     43  CD        10.4750   11.6230   33.6140 C.2    48  GLU48       0.3649
     44  OE1       11.7060   11.4500   33.6090 O.co2  48  GLU48      -0.2457
     45  OE2        9.6400   10.7030   33.4720 O.co2  48  GLU48      -0.2457
     46  N         12.4840   11.4050   22.1440 N.3    78  TRP78      -0.1227
     47  CA        11.9160   11.5610   23.4860 C.3    78  TRP78       0.1737
     48  C         11.5660   10.2910   24.2340 C.2    78  TRP78       0.2595
     49  O         11.9570   10.2000   25.4030 O.2    78  TRP78      -0.2718
     50  CB        10.7490   12.5400   23.4180 C.3    78  TRP78       0.0564
     51  CG         9.4470   12.0200   22.9090 C.ar   78  TRP78       0.0003
     52  CD1        8.9990   12.0060   21.6110 C.ar   78  TRP78       0.0946
     53  CD2        8.4020   11.4310   23.6890 C.ar   78  TRP78       0.0152
     54  NE1        7.7510   11.4420   21.5330 N.ar   78  TRP78      -0.2442
     55  CE2        7.3630   11.0820   22.7950 C.ar   78  TRP78       0.0810
     56  CE3        8.2500   11.1520   25.0500 C.ar   78  TRP78       0.0012
     57  CZ2        6.1810   10.4810   23.2380 C.ar   78  TRP78       0.0191
     58  CZ3        7.0980   10.5630   25.4900 C.ar   78  TRP78       0.0001
     59  CH2        6.0650   10.2340   24.5810 C.ar   78  TRP78       0.0015
     60  N         10.8600    9.3220   23.6370 N.am   79  LEU79      -0.1980
     61  CA        10.4570    8.1440   24.4130 C.3    79  LEU79       0.1596
     62  C         11.6180    7.2320   24.7720 C.2    79  LEU79       0.2287
     63  O         11.6030    6.6360   25.8350 O.2    79  LEU79      -0.2864
     64  CB         9.2760    7.4520   23.7570 C.3    79  LEU79       0.0297
     65  CG         8.5910    6.3460   24.5820 C.3    79  LEU79       0.0022
     66  CD1        8.0760    6.8550   25.9460 C.3    79  LEU79       0.0001
     67  CD2        7.4180    5.7630   23.7670 C.3    79  LEU79       0.0001
     68  N         13.2430    8.8640   27.8960 N.3    82  LEU82      -0.1231
     69  CA        12.5250    8.6180   29.1410 C.3    82  LEU82       0.1693
     70  C         12.7250    7.1520   29.5380 C.2    82  LEU82       0.2591
     71  O         12.9560    6.8590   30.7170 O.2    82  LEU82      -0.2718
     72  CB        11.0240    8.8610   29.1300 C.3    82  LEU82       0.0284
     73  CG        10.5620   10.3000   28.8610 C.3    82  LEU82       0.0019
     74  CD1        9.0320   10.3410   28.7610 C.3    82  LEU82       0.0001
     75  CD2       11.0830   11.2040   29.9480 C.3    82  LEU82       0.0001
     76  N         12.6740    6.2970   28.5380 N.am   83  MET83      -0.1979
     77  CA        12.8490    4.8700   28.8250 C.3    83  MET83       0.1605
     78  C         14.2290    4.5480   29.3260 C.2    83  MET83       0.2287
     79  O         14.3680    3.7750   30.2890 O.2    83  MET83      -0.2864
     80  CB        12.4440    4.0930   27.5700 C.3    83  MET83       0.0413
     81  CG        10.9610    3.7750   27.5720 C.3    83  MET83       0.0598
     82  SD        10.5430    2.9030   26.0660 S.3    83  MET83      -0.1393
     83  CE         8.8330    2.5200   26.3440 C.3    83  MET83       0.0692
     84  N         14.4940    5.5650   32.9720 N.3    86  LEU86      -0.1245
     85  CA        13.6960    4.6220   33.7390 C.3    86  LEU86       0.1561
     86  C         14.5060    3.3690   34.0100 C.2    86  LEU86       0.2260
     87  O         14.6540    2.9830   35.1750 O.2    86  LEU86      -0.2867
     88  CB        12.4070    4.3020   32.9900 C.3    86  LEU86       0.0270
     89  CG        11.5800    3.1290   33.4740 C.3    86  LEU86       0.0019
     90  CD1       11.2130    3.3620   34.9440 C.3    86  LEU86       0.0001
     91  CD2       10.3080    2.9120   32.6760 C.3    86  LEU86       0.0001
     92  N         17.2540    3.9870   36.6390 N.3    89  ARG89      -0.1245
     93  CA        16.6770    4.2070   37.9250 C.3    89  ARG89       0.1563
     94  C         16.2330    2.9060   38.5940 C.2    89  ARG89       0.2260
     95  O         16.2910    2.8900   39.8240 O.2    89  ARG89      -0.2867
     96  CB        15.4630    5.1610   37.8710 C.3    89  ARG89       0.0307
     97  CG        15.8040    6.6340   37.6260 C.3    89  ARG89       0.0489
     98  CD        14.6280    7.5270   37.9210 C.3    89  ARG89       0.2205
     99  NE        13.3790    7.0810   37.3060 N.pl3  89  ARG89      -0.0865
    100  CZ        13.0570    7.5080   36.0860 C.cat  89  ARG89       0.5346
    101  NH1       13.8980    8.3500   35.4710 N.pl3  89  ARG89       0.1354
    102  NH2       11.9520    7.2150   35.4340 N.pl3  89  ARG89       0.1354
    103  N          9.4350    4.4560   38.3320 N.3    99  PHE99      -0.1241
    104  CA         9.0620    5.5910   37.4910 C.3    99  PHE99       0.1605
    105  C          9.5360    6.8490   38.2120 C.2    99  PHE99       0.2264
    106  O         10.0020    7.8210   37.6080 O.2    99  PHE99      -0.2867
    107  CB         7.6110    5.4800   37.1190 C.3    99  PHE99       0.0534
    108  CG         7.2390    4.5510   36.0020 C.ar   99  PHE99      -0.0203
    109  CD1        7.2030    4.9530   34.6780 C.ar   99  PHE99      -0.0042
    110  CD2        6.9030    3.2380   36.2890 C.ar   99  PHE99      -0.0042
    111  CE1        6.8450    4.0700   33.6690 C.ar   99  PHE99      -0.0003
    112  CE2        6.5500    2.3520   35.2910 C.ar   99  PHE99      -0.0003
    113  CZ         6.5160    2.7670   33.9720 C.ar   99  PHE99      -0.0000
    114  N          0.3310   -3.1720   28.5840 N.3   116  MET116     -0.1301
    115  CA         1.4870   -2.7040   29.2910 C.3   116  MET116      0.1256
    116  C          2.4390   -3.7730   29.7890 C.3   116  MET116      0.2010
    117  O          3.6290   -3.4450   29.7920 O.3   116  MET116     -0.2188
    118  CB         1.0920   -1.8300   30.5060 C.3   116  MET116      0.0333
    119  CG         2.2530   -0.9800   31.0120 C.3   116  MET116      0.0592
    120  SD         2.5310    0.4860   29.9520 S.3   116  MET116     -0.1393
    121  CE         4.2910    0.3440   29.8170 C.3   116  MET116      0.0692
    122  N          5.3990   -4.4080   27.6240 N.3   119  ILE119     -0.1245
    123  CA         6.2880   -3.2790   27.6620 C.3   119  ILE119      0.1561
    124  C          7.1370   -3.3700   28.9180 C.2   119  ILE119      0.2260
    125  O          8.3770   -3.3440   28.8530 O.2   119  ILE119     -0.2867
    126  CB         5.5330   -1.9290   27.7020 C.3   119  ILE119      0.0252
    127  CG1        4.3690   -1.9210   26.7240 C.3   119  ILE119      0.0019
    128  CG2        6.5390   -0.7900   27.4980 C.3   119  ILE119      0.0019
    129  CD1        4.5960   -1.6380   25.2760 C.3   119  ILE119      0.0001
    130  N         11.1760   -3.4810   29.4190 N.3   123  LEU123     -0.1245
    131  CA        11.8310   -2.4940   30.2640 C.3   123  LEU123      0.1561
    132  C         12.5930   -3.2040   31.3640 C.2   123  LEU123      0.2260
    133  O         13.7480   -2.8310   31.5550 O.2   123  LEU123     -0.2867
    134  CB        10.9160   -1.4290   30.9130 C.3   123  LEU123      0.0270
    135  CG        10.4300   -0.4050   29.8540 C.3   123  LEU123      0.0019
    136  CD1        9.0300    0.0660   30.1310 C.3   123  LEU123      0.0001
    137  CD2       11.4330    0.7310   29.7970 C.3   123  LEU123      0.0001
    138  N          6.0930    1.3900   22.5970 N.3   216  GLY216     -0.1225
    139  CA         5.4850    2.2760   23.5820 C.3   216  GLY216      0.1811
    140  C          4.7400    3.3520   22.7920 C.2   216  GLY216      0.2280
    141  O          3.6220    3.6990   23.1830 O.2   216  GLY216     -0.2866
    142  N          1.5930    1.7670   21.7230 N.3   219  HIS219     -0.1226
    143  CA         0.7820    1.6010   22.9110 C.3   219  HIS219      0.1752
    144  C          0.2030    2.9320   23.3690 C.2   219  HIS219      0.2595
    145  O         -0.9700    3.0230   23.7380 O.2   219  HIS219     -0.2718
    146  CB         1.5990    0.9100   24.0030 C.3   219  HIS219      0.0759
    147  CG         0.6890    0.6010   25.1530 C.ar  219  HIS219      0.0818
    148  ND1        0.4810    1.5040   26.1910 N.ar  219  HIS219     -0.2268
    149  CD2       -0.0800   -0.4870   25.4010 C.ar  219  HIS219      0.1154
    150  CE1       -0.3760    0.9610   27.0400 C.ar  219  HIS219      0.1986
    151  NE2       -0.7260   -0.2340   26.5880 N.ar  219  HIS219     -0.2212
    152  N          0.9890    3.9940   23.3260 N.am  220  LEU220     -0.1980
    153  CA         0.5630    5.3100   23.7400 C.3   220  LEU220      0.1596
    154  C         -0.4650    5.8920   22.7910 C.2   220  LEU220      0.2287
    155  O         -1.3390    6.6770   23.1430 O.2   220  LEU220     -0.2864
    156  CB         1.7660    6.2660   23.8640 C.3   220  LEU220      0.0297
    157  CG         1.4320    7.5520   24.6160 C.3   220  LEU220      0.0022
    158  CD1        0.8510    7.1930   25.9810 C.3   220  LEU220      0.0001
    159  CD2        2.6190    8.4680   24.7570 C.3   220  LEU220      0.0001
@<TRIPOS>BOND
     1    54    52   ar
     2    54    55   ar
     3    52    51   ar
     4   142   143    1
     5    46    47    1
     6   138   139    1
     7   154   155    2
     8   154   153    1
     9   140   141    2
    10   140   139    1
    11    55    57   ar
    12    55    53   ar
    13    51    50    1
    14    51    53   ar
    15   143   144    1
    16   143   146    1
    17    57    59   ar
    18   152   144   am
    19   152   153    1
    20   144   145    2
    21    50    47    1
    22    47    48    1
    23    60    48   am
    24    60    61    1
    25    53    56   ar
    26   153   156    1
    27    64    61    1
    28    64    65    1
    29    67    65    1
    30   156   157    1
    31   146   147    1
    32    48    49    2
    33    61    62    1
    34    59    58   ar
    35    65    66    1
    36   157   159    1
    37   157   158    1
    38    62    63    2
    39    56    58   ar
    40   147   149   ar
    41   147   148   ar
    42   129   127    1
    43   149   151   ar
    44    82    83    1
    45    82    81    1
    46   148   150   ar
    47   151   150   ar
    48   127   126    1
    49   128   126    1
    50    80    81    1
    51    80    77    1
    52   122   123    1
    53   123   126    1
    54   123   124    1
    55    68    69    1
    56    76    77    1
    57    76    70   am
    58   114   115    1
    59    74    73    1
    60    77    78    1
    61   125   124    2
    62    73    72    1
    63    73    75    1
    64     8     7    1
    65    72    69    1
    66    69    70    1
    67   115   116    1
    68   115   118    1
    69    78    79    2
    70   130   131    1
    71    22    21    1
    72    70    71    2
    73   116   117    1
    74   137   135    1
    75   121   120    1
    76   135   136    1
    77   135   134    1
    78   120   119    1
    79     7     6    1
    80    36    33    1
    81   131   134    1
    82   131   132    1
    83    35    34    2
    84   118   119    1
    85    40    39    2
    86    34    33    1
    87    21    23    1
    88    21    18    1
    89     6     5    1
    90    39    38    1
    91    33    32    1
    92    20    19    2
    93   132   133    2
    94    18    19    1
    95    18    17    1
    96     5     2    1
    97    38    41    1
    98    38    37    1
    99     4     3    2
   100    41    42    1
   101    12    11    2
   102    17    11   am
   103    32    26   am
   104    91    89    1
   105     2     3    1
   106     2     1    1
   107    11    10    1
   108    84    85    1
   109    88    89    1
   110    88    85    1
   111    15    14    1
   112    13    10    1
   113    13    14    1
   114    45    43   ar
   115    89    90    1
   116    27    26    2
   117    26    25    1
   118    44    43   ar
   119    43    42    1
   120   111   113   ar
   121   111   109   ar
   122    85    86    1
   123   113   112   ar
   124    86    87    2
   125    10     9    1
   126    14    16    1
   127    24    25    1
   128   109   108   ar
   129    25    28    1
   130   112   110   ar
   131   102   100    1
   132   101   100    1
   133    28    29    1
   134    29    31    1
   135    29    30    1
   136   108   110   ar
   137   108   107    1
   138   100    99    2
   139    92    93    1
   140   107   104    1
   141    99    98    1
   142   104   105    1
   143   104   103    1
   144   106   105    2
   145    97    96    1
   146    97    98    1
   147    96    93    1
   148    93    94    1
   149    94    95    2
