@<TRIPOS>MOLECULE
tmp/1gwrB00.pdb
 127 120 0 0 0
SMALL
GASTEIGER

@<TRIPOS>ATOM
      1  N          8.9950   -6.5760  -21.0100 N.3    49  VAL49      -0.1245
      2  CA         9.8550   -7.6360  -21.5980 C.3    49  VAL49       0.1561
      3  C         11.2940   -7.3180  -21.2710 C.2    49  VAL49       0.2260
      4  O         12.1410   -8.0900  -20.7870 O.2    49  VAL49      -0.2867
      5  CB         9.5920   -7.6870  -23.1150 C.3    49  VAL49       0.0252
      6  CG1       10.3140   -8.8120  -23.8390 C.3    49  VAL49       0.0019
      7  CG2        8.0900   -7.7240  -23.4150 C.3    49  VAL49       0.0019
      8  N         11.9020   -8.2130  -17.7410 N.3    52  ILE52      -0.1231
      9  CA        12.2490   -9.6040  -17.4750 C.3    52  ILE52       0.1692
     10  C         13.7110   -9.8540  -17.8580 C.2    52  ILE52       0.2592
     11  O         14.4870  -10.4160  -17.0450 O.2    52  ILE52      -0.2718
     12  CB        11.3480  -10.5190  -18.3090 C.3    52  ILE52       0.0266
     13  CG1        9.9040  -10.2000  -18.0400 C.3    52  ILE52       0.0019
     14  CG2       11.7270  -11.9730  -18.0370 C.3    52  ILE52       0.0020
     15  CD1        8.9150  -10.9250  -18.9190 C.3    52  ILE52       0.0001
     16  N         14.1800   -9.4490  -19.0510 N.am   53  ASN53      -0.1974
     17  CA        15.5960   -9.7050  -19.3480 C.3    53  ASN53       0.1688
     18  C         16.5000   -8.9670  -18.3790 C.2    53  ASN53       0.2292
     19  O         17.6250   -9.4190  -18.1850 O.2    53  ASN53      -0.2864
     20  CB        16.0750   -9.3120  -20.7580 C.3    53  ASN53       0.1181
     21  CG        15.2400  -10.0140  -21.8220 C.2    53  ASN53       0.2629
     22  OD1       14.9560  -11.2070  -21.7460 O.2    53  ASN53      -0.2716
     23  ND2       14.7930   -9.1840  -22.7560 N.am   53  ASN53      -0.0877
     24  N         16.7970  -11.3480  -15.1780 N.3    56  LYS56      -0.1245
     25  CA        17.7120  -12.4810  -15.2260 C.3    56  LYS56       0.1561
     26  C         19.1780  -12.0490  -15.1310 C.2    56  LYS56       0.2260
     27  O         20.0530  -12.9220  -14.9940 O.2    56  LYS56      -0.2867
     28  CB        17.5820  -13.3820  -16.4620 C.3    56  LYS56       0.0271
     29  CG        16.3670  -13.1250  -17.2950 C.3    56  LYS56       0.0035
     30  CD        15.6450  -14.2300  -17.9640 C.3    56  LYS56       0.0206
     31  CE        16.5020  -14.9900  -18.9640 C.3    56  LYS56       0.1093
     32  NZ        15.6540  -15.5300  -20.0700 N.3    56  LYS56      -0.1314
     33  N         19.3780  -14.0450   -9.0100 N.3    61  PHE61      -0.1241
     34  CA        17.9700  -14.2410   -9.3970 C.3    61  PHE61       0.1605
     35  C         17.7830  -15.5310  -10.1550 C.2    61  PHE61       0.2264
     36  O         16.8550  -16.2760   -9.8970 O.2    61  PHE61      -0.2867
     37  CB        17.4780  -13.0230  -10.2220 C.3    61  PHE61       0.0534
     38  CG        16.0540  -13.1050  -10.6650 C.ar   61  PHE61      -0.0203
     39  CD1       15.0150  -12.7760   -9.7930 C.ar   61  PHE61      -0.0042
     40  CD2       15.7290  -13.5360  -11.9320 C.ar   61  PHE61      -0.0042
     41  CE1       13.7020  -12.8640  -10.2120 C.ar   61  PHE61      -0.0003
     42  CE2       14.4280  -13.6370  -12.3550 C.ar   61  PHE61      -0.0003
     43  CZ        13.3960  -13.3010  -11.4760 C.ar   61  PHE61      -0.0000
     44  N         12.1130  -21.3960  -11.0670 N.3    66  LEU66      -0.1231
     45  CA        11.2980  -20.6430  -11.9970 C.3    66  LEU66       0.1693
     46  C         10.0670  -20.1280  -11.2630 C.2    66  LEU66       0.2592
     47  O          9.6900  -18.9690  -11.4340 O.2    66  LEU66      -0.2718
     48  CB        10.8600  -21.5510  -13.1280 C.3    66  LEU66       0.0284
     49  CG        10.9380  -21.1260  -14.5710 C.3    66  LEU66       0.0019
     50  CD1       11.7320  -19.8480  -14.8210 C.3    66  LEU66       0.0001
     51  CD2       11.6800  -22.2240  -15.3400 C.3    66  LEU66       0.0001
     52  N          9.4330  -20.9660  -10.4490 N.am   67  HIS67      -0.1976
     53  CA         8.2390  -20.5450   -9.7140 C.3    67  HIS67       0.1656
     54  C          8.4320  -19.2810   -8.8750 C.2    67  HIS67       0.2291
     55  O          7.5270  -18.4570   -8.8510 O.2    67  HIS67      -0.2864
     56  CB         7.6880  -21.6480   -8.8030 C.3    67  HIS67       0.0771
     57  CG         6.2750  -21.4380   -8.3440 C.ar   67  HIS67       0.0820
     58  ND1        5.9720  -21.3910   -6.9960 N.ar   67  HIS67      -0.2267
     59  CD2        5.1020  -21.2720   -9.0220 C.ar   67  HIS67       0.1154
     60  CE1        4.6660  -21.2040   -6.8540 C.ar   67  HIS67       0.1986
     61  NE2        4.1200  -21.1410   -8.0710 N.ar   67  HIS67      -0.2212
     62  N         10.8590  -17.0720   -9.4190 N.3    69  GLN69      -0.1231
     63  CA        11.2610  -16.0460  -10.3550 C.3    69  GLN69       0.1698
     64  C          9.9860  -15.3070  -10.7500 C.2    69  GLN69       0.2592
     65  O          9.8820  -14.0850  -10.6440 O.2    69  GLN69      -0.2718
     66  CB        11.9980  -16.6690  -11.5430 C.3    69  GLN69       0.0381
     67  CG        13.4280  -17.0190  -11.1790 C.3    69  GLN69       0.0905
     68  CD        14.2400  -17.5820  -12.3350 C.2    69  GLN69       0.2608
     69  OE1       14.1240  -17.1830  -13.4910 O.2    69  GLN69      -0.2717
     70  NE2       15.0940  -18.5540  -12.0060 N.am   69  GLN69      -0.0878
     71  N          8.9630  -16.0180  -11.1240 N.am   70  VAL70      -0.1980
     72  CA         7.6420  -15.5280  -11.4970 C.3    70  VAL70       0.1595
     73  C          6.9090  -14.7850  -10.3790 C.2    70  VAL70       0.2287
     74  O          6.2680  -13.7440  -10.5740 O.2    70  VAL70      -0.2864
     75  CB         6.7370  -16.7250  -11.9040 C.3    70  VAL70       0.0276
     76  CG1        5.2920  -16.3310  -12.0410 C.3    70  VAL70       0.0022
     77  CG2        7.1980  -17.3220  -13.2330 C.3    70  VAL70       0.0022
     78  N          8.7000  -11.4670  -10.0530 N.3    73  LEU73      -0.1231
     79  CA         8.3380  -10.4370  -11.0550 C.3    73  LEU73       0.1693
     80  C          6.9180   -9.9400  -10.8190 C.2    73  LEU73       0.2591
     81  O          6.6410   -8.7440  -10.6940 O.2    73  LEU73      -0.2718
     82  CB         8.5570  -10.9220  -12.4630 C.3    73  LEU73       0.0284
     83  CG        10.0330  -10.8840  -12.9150 C.3    73  LEU73       0.0019
     84  CD1       10.1490  -11.5110  -14.3060 C.3    73  LEU73       0.0001
     85  CD2       10.5890   -9.4610  -12.9520 C.3    73  LEU73       0.0001
     86  N          5.9720  -10.8580  -10.7300 N.am   74  GLU74      -0.1979
     87  CA         4.5690  -10.5220  -10.5300 C.3    74  GLU74       0.1602
     88  C          4.3410   -9.5890   -9.3600 C.2    74  GLU74       0.2287
     89  O          3.4450   -8.7550   -9.4800 O.2    74  GLU74      -0.2864
     90  CB         3.7650  -11.8290  -10.4180 C.3    74  GLU74       0.0415
     91  CG         3.4850  -12.5010  -11.7420 C.3    74  GLU74       0.1163
     92  CD         2.7630  -13.8180  -11.7570 C.2    74  GLU74       0.3649
     93  OE1        2.6290  -14.5530  -10.7600 O.co2  74  GLU74      -0.2457
     94  OE2        2.2630  -14.2160  -12.8640 O.co2  74  GLU74      -0.2457
     95  N         -1.4200   -8.4720  -23.8140 N.3   229  ASP229     -0.1225
     96  CA        -1.2560   -9.7480  -23.1590 C.3   229  ASP229      0.1805
     97  C         -0.3840   -9.7710  -21.9290 C.2   229  ASP229      0.2597
     98  O         -0.8770  -10.0410  -20.8210 O.2   229  ASP229     -0.2718
     99  CB        -0.7500  -10.7850  -24.1860 C.3   229  ASP229      0.1424
    100  CG        -1.8270  -11.0500  -25.2350 C.2   229  ASP229      0.3668
    101  OD1       -2.9370  -11.4620  -24.8140 O.co2 229  ASP229     -0.2456
    102  OD2       -1.5910  -10.8520  -26.4560 O.co2 229  ASP229     -0.2456
    103  N          0.9080   -9.5030  -22.0750 N.am  230  LEU230     -0.1979
    104  CA         1.7800   -9.5380  -20.8960 C.3   230  LEU230      0.1596
    105  C          1.3350   -8.5940  -19.7870 C.2   230  LEU230      0.2287
    106  O          1.3060   -9.0090  -18.6220 O.2   230  LEU230     -0.2864
    107  CB         3.2260   -9.3080  -21.3070 C.3   230  LEU230      0.0297
    108  CG         4.3180   -9.4190  -20.2500 C.3   230  LEU230      0.0022
    109  CD1        4.2870  -10.7260  -19.4830 C.3   230  LEU230      0.0001
    110  CD2        5.6830   -9.2110  -20.8810 C.3   230  LEU230      0.0001
    111  N         -1.6760   -9.9740  -18.0230 N.3   233  GLU233     -0.1231
    112  CA        -1.3030  -11.1820  -17.3030 C.3   233  GLU233      0.1699
    113  C         -0.6370  -10.7730  -16.0020 C.2   233  GLU233      0.2592
    114  O         -0.9690  -11.3460  -14.9530 O.2   233  GLU233     -0.2718
    115  CB        -0.4440  -12.0640  -18.1880 C.3   233  GLU233      0.0402
    116  CG        -0.0780  -13.4100  -17.6030 C.3   233  GLU233      0.1161
    117  CD         1.3090  -13.9310  -17.9710 C.2   233  GLU233      0.3649
    118  OE1        1.4830  -14.3600  -19.1370 O.co2 233  GLU233     -0.2457
    119  OE2        2.2020  -13.9170  -17.0840 O.co2 233  GLU233     -0.2457
    120  N          0.2560   -9.7950  -15.9810 N.am  234  MET234     -0.1979
    121  CA         0.9050   -9.2960  -14.7780 C.3   234  MET234      0.1605
    122  C         -0.1150   -8.5910  -13.8540 C.2   234  MET234      0.2287
    123  O          0.1090   -8.6010  -12.6340 O.2   234  MET234     -0.2864
    124  CB         2.0130   -8.2810  -14.9840 C.3   234  MET234      0.0413
    125  CG         3.2250   -8.4550  -15.8220 C.3   234  MET234      0.0598
    126  SD         4.4060   -9.7290  -15.3500 S.3   234  MET234     -0.1393
    127  CE         3.4490  -11.1330  -15.9490 C.3   234  MET234      0.0692
@<TRIPOS>BOND
     1   102   100   ar
     2   100   101   ar
     3   100    99    1
     4    99    96    1
     5     6     5    1
     6    95    96    1
     7     7     5    1
     8    96    97    1
     9     5     2    1
    10    23    21   am
    11   103    97   am
    12   103   104    1
    13    97    98    2
    14    21    22    2
    15    21    20    1
    16     2     3    1
    17     2     1    1
    18   107   104    1
    19   107   108    1
    20     3     4    2
    21   104   105    1
    22   110   108    1
    23    20    17    1
    24   108   109    1
    25    32    31    1
    26   105   106    2
    27    17    16    1
    28    17    18    1
    29   118   117   ar
    30    16    10   am
    31    31    30    1
    32    15    13    1
    33    18    19    2
    34    12    13    1
    35    12    14    1
    36    12     9    1
    37   115   116    1
    38   115   112    1
    39   111   112    1
    40   117   116    1
    41   117   119   ar
    42    30    29    1
    43    10     9    1
    44    10    11    2
    45     8     9    1
    46   112   113    1
    47    29    28    1
    48    28    25    1
    49   113   120   am
    50   113   114    2
    51   120   121    1
    52   127   126    1
    53   125   126    1
    54   125   124    1
    55    51    49    1
    56    25    24    1
    57    25    26    1
    58    26    27    2
    59   124   121    1
    60    50    49    1
    61   121   122    1
    62    49    48    1
    63    84    83    1
    64   122   123    2
    65    69    68    2
    66    77    75    1
    67    48    45    1
    68    85    83    1
    69    83    82    1
    70    94    92   ar
    71    82    79    1
    72    42    40   ar
    73    42    43   ar
    74    68    70   am
    75    68    67    1
    76    76    75    1
    77    45    46    1
    78    45    44    1
    79    40    38   ar
    80    75    72    1
    81    92    91    1
    82    92    93   ar
    83    91    90    1
    84    66    67    1
    85    66    63    1
    86    72    71    1
    87    72    73    1
    88    43    41   ar
    89    47    46    2
    90    46    52   am
    91    71    64   am
    92    79    80    1
    93    79    78    1
    94    80    86   am
    95    80    81    2
    96    64    65    2
    97    64    63    1
    98    86    87    1
    99    38    37    1
   100    38    39   ar
   101    74    73    2
   102    87    90    1
   103    87    88    1
   104    52    53    1
   105    63    62    1
   106    37    34    1
   107    41    39   ar
   108    35    36    2
   109    35    34    1
   110    53    54    1
   111    53    56    1
   112    89    88    2
   113    34    33    1
   114    59    57   ar
   115    59    61   ar
   116    54    55    2
   117    56    57    1
   118    57    58   ar
   119    61    60   ar
   120    58    60   ar
