@<TRIPOS>MOLECULE
tmp/1gwsA11.pdb
 180 171 0 0 0
SMALL
GASTEIGER

@<TRIPOS>ATOM
      1  N        -14.5490   79.8320   -3.8060 N.3   112  ILE112     -0.1231
      2  CA       -15.7090   79.5890   -4.6030 C.3   112  ILE112      0.1692
      3  C        -16.8980   79.3010   -3.6730 C.2   112  ILE112      0.2593
      4  O        -16.7610   78.7510   -2.5440 O.2   112  ILE112     -0.2718
      5  CB       -15.5460   78.4300   -5.5860 C.3   112  ILE112      0.0266
      6  CG1      -16.7930   78.3880   -6.4740 C.3   112  ILE112      0.0019
      7  CG2      -15.4640   77.1230   -4.8200 C.3   112  ILE112      0.0020
      8  CD1      -16.6780   77.6020   -7.8060 C.3   112  ILE112      0.0001
      9  N        -18.0780   79.6380   -4.1670 N.am  113  GLY113     -0.1942
     10  CA       -19.2760   79.3800   -3.4060 C.3   113  GLY113      0.2014
     11  C        -20.4650   79.2400   -4.3080 C.2   113  GLY113      0.2638
     12  O        -20.3380   79.4830   -5.5120 O.2   113  GLY113     -0.2714
     13  N        -21.5780   78.7740   -3.7420 N.am  114  PHE114     -0.1973
     14  CA       -22.8090   78.6410   -4.4780 C.3   114  PHE114      0.1639
     15  C        -23.6900   79.8960   -4.3280 C.2   114  PHE114      0.2290
     16  O        -24.1730   80.2290   -3.2370 O.2   114  PHE114     -0.2864
     17  CB       -23.6170   77.4440   -3.9870 C.3   114  PHE114      0.0560
     18  CG       -23.2510   76.1220   -4.5990 C.ar  114  PHE114     -0.0200
     19  CD1      -22.0140   75.9070   -5.2380 C.ar  114  PHE114     -0.0042
     20  CD2      -24.1500   75.0650   -4.5240 C.ar  114  PHE114     -0.0042
     21  CE1      -21.7150   74.6440   -5.8390 C.ar  114  PHE114     -0.0003
     22  CE2      -23.8400   73.8050   -5.0880 C.ar  114  PHE114     -0.0003
     23  CZ       -22.6130   73.6070   -5.7410 C.ar  114  PHE114     -0.0000
     24  N        -26.0190   78.8240   -9.2030 N.3   118  LEU118     -0.1245
     25  CA       -25.2100   77.6320   -9.2480 C.3   118  LEU118      0.1561
     26  C        -25.8280   76.5190   -8.4010 C.2   118  LEU118      0.2260
     27  O        -25.5230   75.3300   -8.6140 O.2   118  LEU118     -0.2867
     28  CB       -23.7480   77.9230   -8.8110 C.3   118  LEU118      0.0270
     29  CG       -22.7820   76.7490   -8.9880 C.3   118  LEU118      0.0019
     30  CD1      -22.7330   76.1920  -10.3730 C.3   118  LEU118      0.0001
     31  CD2      -21.3160   77.0470   -8.5320 C.3   118  LEU118      0.0001
     32  N        -28.5380   74.9390  -10.6860 N.3   121  ARG121     -0.1182
     33  CA       -28.0070   74.0060  -11.7130 C.3   121  ARG121      0.1910
     34  C        -27.6990   72.6060  -11.0950 C.2   121  ARG121      0.2634
     35  O        -27.8690   71.5850  -11.7490 O.2   121  ARG121     -0.2714
     36  CB       -26.8480   74.6010  -12.5160 C.2   121  ARG121      0.0007
     37  CG       -27.0260   75.9970  -12.9860 C.2   121  ARG121      0.0176
     38  CD       -25.8160   76.5830  -13.8590 C.3   121  ARG121      0.2464
     39  NE       -25.1340   75.5440  -14.6290 N.pl3 121  ARG121     -0.0815
     40  CZ       -23.8280   75.5290  -14.8110 C.cat 121  ARG121      0.5349
     41  NH1      -23.1210   76.5610  -14.3280 N.pl3 121  ARG121      0.1354
     42  NH2      -23.2300   74.4900  -15.4240 N.pl3 121  ARG121      0.1354
     43  N        -27.2730   72.5330   -9.8210 N.am  122  HIS122     -0.1973
     44  CA       -27.1310   71.1740   -9.2540 C.3   122  HIS122      0.1656
     45  C        -28.4580   70.4280   -8.9810 C.2   122  HIS122      0.2291
     46  O        -28.6100   69.2190   -9.2800 O.2   122  HIS122     -0.2864
     47  CB       -26.2640   71.1730   -8.0080 C.3   122  HIS122      0.0771
     48  CG       -24.8160   71.4220   -8.2780 C.ar  122  HIS122      0.0820
     49  ND1      -24.3090   72.6880   -8.4780 N.ar  122  HIS122     -0.2267
     50  CD2      -23.7600   70.5710   -8.3360 C.ar  122  HIS122      0.1154
     51  CE1      -23.0050   72.5970   -8.6770 C.ar  122  HIS122      0.1986
     52  NE2      -22.6410   71.3280   -8.5630 N.ar  122  HIS122     -0.2212
     53  N        -30.3440   68.9460  -12.0750 N.3   125  SER125     -0.1217
     54  CA       -29.4930   68.1200  -12.8970 C.3   125  SER125      0.1889
     55  C        -29.9040   66.6630  -12.9150 C.2   125  SER125      0.2288
     56  O        -30.0610   66.0250  -11.8650 O.2   125  SER125     -0.2866
     57  CB       -28.0780   68.2030  -12.4020 C.3   125  SER125      0.2089
     58  OG       -27.3540   67.1140  -12.9360 O.3   125  SER125     -0.2183
     59  N        -28.0980   64.0860  -13.7660 N.3   127  ALA127     -0.1231
     60  CA       -27.0800   63.1760  -13.2750 C.3   127  ALA127      0.1694
     61  C        -27.0570   63.0720  -11.7320 C.2   127  ALA127      0.2591
     62  O        -26.3370   62.2290  -11.1690 O.2   127  ALA127     -0.2718
     63  CB       -25.7620   63.5700  -13.7620 C.3   127  ALA127      0.0304
     64  N        -27.7980   63.9250  -11.0350 N.am  128  ILE128     -0.1980
     65  CA       -27.8070   63.8160   -9.5800 C.3   128  ILE128      0.1595
     66  C        -29.1580   63.2810   -9.1850 C.2   128  ILE128      0.2287
     67  O        -30.1480   64.0230   -9.0840 O.2   128  ILE128     -0.2864
     68  CB       -27.5400   65.1470   -8.9350 C.3   128  ILE128      0.0276
     69  CG1      -26.3170   65.7830   -9.6060 C.3   128  ILE128      0.0022
     70  CG2      -27.5190   64.9970   -7.3740 C.3   128  ILE128      0.0022
     71  CD1      -26.1160   67.2780   -9.3200 C.3   128  ILE128      0.0001
     72  N        -28.6370   63.7870   -1.7530 N.3   140  ALA140     -0.1231
     73  CA       -27.4480   63.4070   -2.4770 C.3   140  ALA140      0.1694
     74  C        -26.3370   64.2610   -1.9130 C.2   140  ALA140      0.2592
     75  O        -25.1500   63.9150   -1.9980 O.2   140  ALA140     -0.2718
     76  CB       -27.6190   63.7120   -3.9150 C.3   140  ALA140      0.0304
     77  N        -26.7080   65.4130   -1.3460 N.am  141  CYS141     -0.1970
     78  CA       -25.6590   66.2940   -0.8210 C.3   141  CYS141      0.1712
     79  C        -25.7150   66.6670    0.6510 C.2   141  CYS141      0.2296
     80  O        -24.7240   66.8540    1.2560 O.2   141  CYS141     -0.2864
     81  CB       -25.5470   67.5460   -1.6740 C.3   141  CYS141      0.0983
     82  SG       -25.2230   67.1000   -3.4080 S.3   141  CYS141     -0.0798
     83  N        -22.4790   74.2270    3.9390 N.3   162  CYS162     -0.1235
     84  CA       -21.5250   73.2970    4.5310 C.3   162  CYS162      0.1677
     85  C        -20.7780   74.0760    5.5090 C.2   162  CYS162      0.2270
     86  O        -20.3450   73.5470    6.5150 O.2   162  CYS162     -0.2867
     87  CB       -20.5850   72.7030    3.4900 C.3   162  CYS162      0.0956
     88  SG       -21.3250   72.3520    1.8190 S.3   162  CYS162     -0.0801
     89  N        -15.5610   69.9600    1.3140 N.3   181  ALA181     -0.1245
     90  CA       -15.8420   70.3920   -0.0140 C.3   181  ALA181      0.1562
     91  C        -14.9940   69.6090   -0.9850 C.2   181  ALA181      0.2260
     92  O        -15.4990   69.0910   -1.9410 O.2   181  ALA181     -0.2867
     93  CB       -15.5330   71.9410   -0.1620 C.3   181  ALA181      0.0290
     94  N        -16.3080   65.8430   -1.1980 N.3   184  ALA184     -0.1231
     95  CA       -17.6640   65.6710   -1.7620 C.3   184  ALA184      0.1694
     96  C        -17.8850   66.1800   -3.1900 C.2   184  ALA184      0.2592
     97  O        -18.4620   65.4950   -4.0260 O.2   184  ALA184     -0.2718
     98  CB       -18.7430   66.2880   -0.8460 C.3   184  ALA184      0.0304
     99  N        -17.4820   67.4030   -3.4380 N.am  185  CYS185     -0.1970
    100  CA       -17.7130   68.0050   -4.7030 C.3   185  CYS185      0.1712
    101  C        -16.8620   67.2660   -5.8060 C.2   185  CYS185      0.2296
    102  O        -17.4080   66.6730   -6.7380 O.2   185  CYS185     -0.2864
    103  CB       -17.3550   69.4760   -4.6300 C.3   185  CYS185      0.0983
    104  SG       -17.8770   70.3650   -3.1510 S.3   185  CYS185     -0.0798
    105  N        -17.8700   63.6590   -6.6800 N.3   188  CYS188     -0.1221
    106  CA       -19.0250   63.4490   -7.5170 C.3   188  CYS188      0.1808
    107  C        -18.7160   63.9650   -8.9200 C.2   188  CYS188      0.2601
    108  O        -19.1600   63.3960   -9.8780 O.2   188  CYS188     -0.2717
    109  CB       -20.2510   64.1790   -6.9790 C.3   188  CYS188      0.0970
    110  SG       -21.6640   64.2730   -8.1120 S.3   188  CYS188     -0.0800
    111  N        -17.9820   65.0630   -9.0320 N.am  189  HIS189     -0.1975
    112  CA       -17.6730   65.6100  -10.3050 C.3   189  HIS189      0.1656
    113  C        -16.9880   64.5300  -11.1110 C.2   189  HIS189      0.2291
    114  O        -17.1870   64.4880  -12.3500 O.2   189  HIS189     -0.2864
    115  CB       -16.7860   66.8900  -10.2590 C.3   189  HIS189      0.0771
    116  CG       -17.5130   68.1450   -9.8800 C.ar  189  HIS189      0.0820
    117  ND1      -16.8530   69.3300   -9.6260 N.ar  189  HIS189     -0.2267
    118  CD2      -18.8350   68.3900   -9.6480 C.ar  189  HIS189      0.1154
    119  CE1      -17.7420   70.2530   -9.2670 C.ar  189  HIS189      0.1986
    120  NE2      -18.9410   69.6960   -9.2200 N.ar  189  HIS189     -0.2212
    121  N        -19.4760   61.5790  -12.2410 N.3   192  VAL192     -0.1245
    122  CA       -20.3980   61.9740  -13.2980 C.3   192  VAL192      0.1561
    123  C        -19.6510   62.1510  -14.5840 C.2   192  VAL192      0.2260
    124  O        -20.2210   62.0400  -15.6450 O.2   192  VAL192     -0.2867
    125  CB       -21.1550   63.2770  -12.9540 C.3   192  VAL192      0.0252
    126  CG1      -21.9910   63.7450  -14.1640 C.3   192  VAL192      0.0019
    127  CG2      -22.0350   63.1140  -11.6730 C.3   192  VAL192      0.0019
    128  N        -22.9200   66.2600  -18.4330 N.3   198  GLU198     -0.1231
    129  CA       -22.2200   67.4700  -18.0180 C.3   198  GLU198      0.1699
    130  C        -21.8210   67.3230  -16.5460 C.2   198  GLU198      0.2593
    131  O        -22.5830   66.7490  -15.7420 O.2   198  GLU198     -0.2718
    132  CB       -23.0860   68.7220  -18.1520 C.3   198  GLU198      0.0402
    133  CG       -22.3080   69.9800  -18.5110 C.3   198  GLU198      0.1161
    134  CD       -21.8060   69.9200  -19.9620 C.2   198  GLU198      0.3649
    135  OE1      -20.7590   70.5570  -20.3040 O.co2 198  GLU198     -0.2457
    136  OE2      -22.4520   69.2160  -20.7820 O.co2 198  GLU198     -0.2457
    137  N        -20.6620   67.8890  -16.1840 N.am  199  THR199     -0.1939
    138  CA       -20.1910   67.8250  -14.8200 C.3   199  THR199      0.2028
    139  C        -19.4740   69.0780  -14.3110 C.2   199  THR199      0.2643
    140  O        -19.4550   70.0960  -15.0200 O.2   199  THR199     -0.2714
    141  CB       -19.4150   66.5420  -14.6520 C.3   199  THR199      0.1808
    142  OG1      -19.2210   66.2490  -13.2450 O.3   199  THR199     -0.2208
    143  CG2      -18.0610   66.6170  -15.4060 C.3   199  THR199      0.0379
    144  N        -19.0160   69.0480  -13.0500 N.am  200  GLY200     -0.1940
    145  CA       -18.3970   70.1910  -12.4130 C.3   200  GLY200      0.1998
    146  C        -16.9010   70.0140  -12.5510 C.2   200  GLY200      0.2478
    147  O        -16.4610   68.9290  -12.9560 O.2   200  GLY200     -0.2729
    148  N        -16.0990   70.9970  -12.1820 N.am  201  PRO201     -0.2771
    149  CA       -14.6560   70.8670  -12.4450 C.3   201  PRO201      0.1083
    150  C        -13.8980   70.0450  -11.3840 C.3   201  PRO201      0.2017
    151  O        -14.3590   69.9110  -10.1880 O.3   201  PRO201     -0.2186
    152  CB       -14.1540   72.3400  -12.5090 C.3   201  PRO201      0.0243
    153  CG       -15.4630   73.2300  -12.2060 C.3   201  PRO201      0.0233
    154  CD       -16.4450   72.2740  -11.5430 C.3   201  PRO201      0.0935
    155  N        -12.0150   75.5030  -10.2980 N.3   207  CYS207     -0.1235
    156  CA       -12.9560   76.0540   -9.3740 C.3   207  CYS207      0.1677
    157  C        -12.4090   77.3800   -8.9120 C.2   207  CYS207      0.2270
    158  O        -13.1680   78.2900   -8.6050 O.2   207  CYS207     -0.2867
    159  CB       -13.1450   75.1340   -8.1800 C.3   207  CYS207      0.0956
    160  SG       -14.3620   73.8670   -8.5030 S.3   207  CYS207     -0.0801
    161  N        -18.5210   80.2260  -15.9550 N.3   216  PHE216     -0.1227
    162  CA       -19.6840   79.4330  -15.5620 C.3   216  PHE216      0.1736
    163  C        -21.0210   79.9770  -16.1030 C.2   216  PHE216      0.2595
    164  O        -21.2670   81.1870  -16.0550 O.2   216  PHE216     -0.2718
    165  CB       -19.8240   79.3630  -14.0420 C.3   216  PHE216      0.0547
    166  CG       -18.6330   78.7840  -13.3190 C.ar  216  PHE216     -0.0202
    167  CD1      -18.3920   79.1370  -11.9760 C.ar  216  PHE216     -0.0042
    168  CD2      -17.7660   77.8770  -13.9440 C.ar  216  PHE216     -0.0042
    169  CE1      -17.2860   78.6140  -11.3060 C.ar  216  PHE216     -0.0003
    170  CE2      -16.6750   77.3430  -13.2660 C.ar  216  PHE216     -0.0003
    171  CZ       -16.4080   77.7240  -11.9720 C.ar  216  PHE216     -0.0000
    172  N        -21.9020   79.0970  -16.5870 N.am  217  LYS217     -0.1980
    173  CA       -23.2330   79.5760  -16.9530 C.3   217  LYS217      0.1596
    174  C        -24.0480   80.0210  -15.7330 C.2   217  LYS217      0.2287
    175  O        -24.1040   79.2720  -14.8010 O.2   217  LYS217     -0.2864
    176  CB       -24.0410   78.4970  -17.6340 C.3   217  LYS217      0.0298
    177  CG       -25.4670   78.9380  -17.8430 C.3   217  LYS217      0.0038
    178  CD       -26.3430   77.7310  -18.3240 C.3   217  LYS217      0.0206
    179  CE       -25.5230   76.4950  -18.8180 C.3   217  LYS217      0.1093
    180  NZ       -26.2980   75.1570  -18.9700 N.3   217  LYS217     -0.1314
@<TRIPOS>BOND
     1   136   134   ar
     2   135   134   ar
     3   134   133    1
     4   180   179    1
     5   179   178    1
     6   133   132    1
     7   128   129    1
     8   178   177    1
     9   132   129    1
    10   129   130    1
    11   177   176    1
    12   176   173    1
    13   173   172    1
    14   173   174    1
    15   172   163   am
    16   130   137   am
    17   130   131    2
    18   137   138    1
    19   163   164    2
    20   163   162    1
    21   161   162    1
    22   174   175    2
    23   124   123    2
    24   162   165    1
    25    42    40    1
    26   143   141    1
    27   140   139    2
    28   138   141    1
    29   138   139    1
    30    40    39    2
    31    40    41    1
    32   141   142    1
    33    39    38    1
    34   123   122    1
    35   139   144   am
    36   126   125    1
    37   165   166    1
    38   168   166   ar
    39   168   170   ar
    40    38    37    1
    41    59    60    1
    42    63    60    1
    43   166   167   ar
    44   122   125    1
    45   122   121    1
    46    60    61    1
    47   170   171   ar
    48   144   145    1
    49    37    36    2
    50   147   146    2
    51   125   127    1
    52    58    57    1
    53    55    54    1
    54    55    56    2
    55    54    57    1
    56    54    53    1
    57   146   145    1
    58   146   148   am
    59    36    33    1
    60   152   149    1
    61   152   153    1
    62   149   148    1
    63   149   150    1
    64   114   113    2
    65   153   154    1
    66   148   154    1
    67   167   169   ar
    68   171   169   ar
    69    35    34    2
    70    61    62    2
    71    61    64   am
    72    33    34    1
    73    33    32    1
    74   150   151    1
    75   113   112    1
    76    34    43   am
    77    64    65    1
    78    30    29    1
    79   112   115    1
    80   112   111    1
    81   155   156    1
    82   115   116    1
    83   116   118   ar
    84   116   117   ar
    85   108   107    2
    86    43    44    1
    87   118   120   ar
    88   117   119   ar
    89    69    71    1
    90    69    68    1
    91    65    66    1
    92    65    68    1
    93   156   157    1
    94   156   159    1
    95    46    45    2
    96   119   120   ar
    97    44    45    1
    98    44    47    1
    99    25    24    1
   100    25    28    1
   101    25    26    1
   102    66    67    2
   103   111   107   am
   104    29    28    1
   105    29    31    1
   106    68    70    1
   107   107   106    1
   108   157   158    2
   109    51    52   ar
   110    51    49   ar
   111    27    26    2
   112    52    50   ar
   113   160   159    1
   114    49    48   ar
   115    50    48   ar
   116    48    47    1
   117   110   109    1
   118     8     6    1
   119   106   109    1
   120   106   105    1
   121   102   101    2
   122     6     5    1
   123    21    23   ar
   124    21    19   ar
   125   101   100    1
   126    23    22   ar
   127     5     7    1
   128     5     2    1
   129    12    11    2
   130    19    18   ar
   131    22    20   ar
   132   100   103    1
   133   100    99    1
   134   103   104    1
   135     2     1    1
   136     2     3    1
   137    18    20   ar
   138    18    17    1
   139    14    15    1
   140    14    17    1
   141    14    13    1
   142    15    16    2
   143    11    13   am
   144    11    10    1
   145     9     3   am
   146     9    10    1
   147    97    96    2
   148    76    73    1
   149     3     4    2
   150    99    96   am
   151    82    81    1
   152    96    95    1
   153    73    74    1
   154    73    72    1
   155    75    74    2
   156    92    91    2
   157    74    77   am
   158    95    94    1
   159    95    98    1
   160    81    78    1
   161    77    78    1
   162    91    90    1
   163    78    79    1
   164    93    90    1
   165    90    89    1
   166    79    80    2
   167    88    87    1
   168    87    84    1
   169    83    84    1
   170    84    85    1
   171    85    86    2
