@<TRIPOS>MOLECULE
tmp/1gwsA14.pdb
 178 172 0 0 0
SMALL
GASTEIGER

@<TRIPOS>ATOM
      1  N        -27.8750   86.5900    4.7570 N.3   271  CYS271     -0.1221
      2  CA       -28.5070   86.9140    6.0240 C.3   271  CYS271      0.1808
      3  C        -28.1790   85.8970    7.0600 C.2   271  CYS271      0.2601
      4  O        -27.7780   86.2320    8.1850 O.2   271  CYS271     -0.2717
      5  CB       -30.0140   87.0920    5.8600 C.3   271  CYS271      0.0970
      6  SG       -30.3680   88.2100    4.4910 S.3   271  CYS271     -0.0800
      7  N        -28.4030   84.6420    6.7610 N.am  272  HIS272     -0.1961
      8  CA       -28.1010   83.6390    7.8040 C.3   272  HIS272      0.1787
      9  C        -26.6100   83.3370    7.7340 C.2   272  HIS272      0.2620
     10  O        -26.2030   82.2780    7.3720 O.2   272  HIS272     -0.2715
     11  CB       -28.9310   82.3460    7.6370 C.3   272  HIS272      0.0785
     12  CG       -30.4080   82.5780    7.4190 C.ar  272  HIS272      0.0821
     13  ND1      -31.2950   82.8050    8.4530 N.ar  272  HIS272     -0.2267
     14  CD2      -31.1460   82.6250    6.2850 C.ar  272  HIS272      0.1154
     15  CE1      -32.5130   82.9790    7.9670 C.ar  272  HIS272      0.1986
     16  NE2      -32.4500   82.8850    6.6460 N.ar  272  HIS272     -0.2212
     17  N        -25.8140   84.2880    8.1560 N.am  273  HIS273     -0.1959
     18  CA       -24.3980   84.2240    8.0610 C.3   273  HIS273      0.1787
     19  C        -23.7620   83.0850    8.8460 C.2   273  HIS273      0.2620
     20  O        -22.6570   82.6720    8.5090 O.2   273  HIS273     -0.2715
     21  CB       -23.8050   85.6160    8.3880 C.3   273  HIS273      0.0785
     22  CG       -24.0100   86.0360    9.8280 C.ar  273  HIS273      0.0821
     23  ND1      -25.1570   86.6790   10.2620 N.ar  273  HIS273     -0.2267
     24  CD2      -23.2260   85.8770   10.9280 C.ar  273  HIS273      0.1154
     25  CE1      -25.0570   86.9240   11.5570 C.ar  273  HIS273      0.1986
     26  NE2      -23.9020   86.4450   11.9860 N.ar  273  HIS273     -0.2212
     27  N        -24.3880   82.5750    9.8980 N.am  274  VAL274     -0.1963
     28  CA       -23.8350   81.3730   10.5610 C.3   274  VAL274      0.1727
     29  C        -24.5570   80.0890   10.2250 C.2   274  VAL274      0.2616
     30  O        -23.9250   79.1320    9.8790 O.2   274  VAL274     -0.2715
     31  CB       -23.8040   81.3980   12.1050 C.3   274  VAL274      0.0290
     32  CG1      -23.2010   80.0180   12.6460 C.3   274  VAL274      0.0023
     33  CG2      -23.0600   82.6560   12.6450 C.3   274  VAL274      0.0023
     34  N        -25.8620   80.0560   10.3840 N.am  275  ARG275     -0.1977
     35  CA       -26.6430   78.8680   10.0670 C.3   275  ARG275      0.1597
     36  C        -28.0650   79.3620    9.8660 C.2   275  ARG275      0.2287
     37  O        -28.3480   80.4370   10.2740 O.2   275  ARG275     -0.2864
     38  CB       -26.6180   77.8050   11.1660 C.3   275  ARG275      0.0334
     39  CG       -27.0700   78.3280   12.5710 C.3   275  ARG275      0.0492
     40  CD       -27.3790   77.2460   13.5890 C.3   275  ARG275      0.2205
     41  NE       -26.7150   77.4810   14.9010 N.pl3 275  ARG275     -0.0865
     42  CZ       -27.3010   77.9700   15.9970 C.cat 275  ARG275      0.5346
     43  NH1      -28.5700   78.3270   16.0120 N.pl3 275  ARG275      0.1354
     44  NH2      -26.5900   78.1250   17.0920 N.pl3 275  ARG275      0.1354
     45  N        -31.6650   79.6940   10.8950 N.3   277  ASP277     -0.1225
     46  CA       -32.3280   79.6300   12.1890 C.3   277  ASP277      0.1805
     47  C        -32.8980   80.9980   12.4320 C.2   277  ASP277      0.2598
     48  O        -32.8500   81.8150   11.5750 O.2   277  ASP277     -0.2718
     49  CB       -31.2850   79.3690   13.3000 C.3   277  ASP277      0.1424
     50  CG       -31.9500   78.9560   14.6720 C.2   277  ASP277      0.3668
     51  OD1      -33.1950   78.9050   14.7780 O.co2 277  ASP277     -0.2456
     52  OD2      -31.3140   78.6120   15.6580 O.co2 277  ASP277     -0.2456
     53  N        -33.4090   81.3020   13.6270 N.am  278  THR278     -0.1939
     54  CA       -33.8200   82.6820   13.8800 C.3   278  THR278      0.2028
     55  C        -32.5270   83.4590   13.9400 C.2   278  THR278      0.2642
     56  O        -31.4730   82.8750   13.9510 O.2   278  THR278     -0.2714
     57  CB       -34.4000   82.8430   15.2990 C.3   278  THR278      0.1808
     58  OG1      -33.4090   82.3930   16.2600 O.3   278  THR278     -0.2208
     59  CG2      -35.6070   82.0610   15.4910 C.3   278  THR278      0.0379
     60  N        -32.6240   84.7500   14.0930 N.am  279  CYS279     -0.1967
     61  CA       -31.5080   85.5610   14.4280 C.3   279  CYS279      0.1712
     62  C        -31.4300   85.6970   15.9390 C.2   279  CYS279      0.2296
     63  O        -30.3400   85.8730   16.5220 O.2   279  CYS279     -0.2864
     64  CB       -31.7650   86.9410   13.9090 C.3   279  CYS279      0.0983
     65  SG       -32.0470   86.9700   12.1270 S.3   279  CYS279     -0.0798
     66  N        -31.7880   83.5040   18.3470 N.3   281  ALA281     -0.1231
     67  CA       -31.1610   82.3880   19.0940 C.3   281  ALA281      0.1694
     68  C        -29.8320   82.8280   19.6210 C.2   281  ALA281      0.2592
     69  O        -29.3840   82.3130   20.6550 O.2   281  ALA281     -0.2718
     70  CB       -30.9070   81.2050   18.2060 C.3   281  ALA281      0.0304
     71  N        -29.2080   83.7870   18.9470 N.am  282  CYS282     -0.1956
     72  CA       -27.9640   84.3420   19.4060 C.3   282  CYS282      0.1843
     73  C        -28.0210   85.8510   19.6800 C.2   282  CYS282      0.2625
     74  O        -27.5050   86.2960   20.6840 O.2   282  CYS282     -0.2714
     75  CB       -26.8360   84.1290   18.4090 C.3   282  CYS282      0.0997
     76  SG       -26.6100   82.5680   17.5810 S.3   282  CYS282     -0.0797
     77  N        -28.5590   86.6420   18.7570 N.am  283  HIS283     -0.1973
     78  CA       -28.5630   88.0950   18.9130 C.3   283  HIS283      0.1656
     79  C        -29.7650   88.4440   19.7640 C.2   283  HIS283      0.2291
     80  O        -30.8340   88.6100   19.2130 O.2   283  HIS283     -0.2864
     81  CB       -28.7080   88.7930   17.5550 C.3   283  HIS283      0.0771
     82  CG       -27.5550   88.5880   16.6120 C.ar  283  HIS283      0.0820
     83  ND1      -26.3410   89.2000   16.7770 N.ar  283  HIS283     -0.2267
     84  CD2      -27.4540   87.8600   15.4630 C.ar  283  HIS283      0.1154
     85  CE1      -25.5320   88.8460   15.7870 C.ar  283  HIS283      0.1986
     86  NE2      -26.1870   88.0390   14.9670 N.ar  283  HIS283     -0.2212
     87  N        -22.8800   83.5890   22.0540 N.3   290  ASP290     -0.1225
     88  CA       -23.0260   83.0190   20.7230 C.3   290  ASP290      0.1805
     89  C        -22.9660   84.1300   19.6480 C.2   290  ASP290      0.2598
     90  O        -22.3670   83.9300   18.5750 O.2   290  ASP290     -0.2718
     91  CB       -24.2490   82.0570   20.6420 C.3   290  ASP290      0.1424
     92  CG       -23.9670   80.6500   21.3240 C.2   290  ASP290      0.3668
     93  OD1      -24.9240   79.9340   21.7900 O.co2 290  ASP290     -0.2456
     94  OD2      -22.7930   80.1820   21.4550 O.co2 290  ASP290     -0.2456
     95  N        -23.5600   85.2930   19.8860 N.am  291  SER291     -0.1938
     96  CA       -23.3110   86.3990   18.9510 C.3   291  SER291      0.2055
     97  C        -22.0380   86.8080   19.5610 C.2   291  SER291      0.2642
     98  O        -21.5550   86.1020   20.4190 O.2   291  SER291     -0.2714
     99  CB       -24.3670   87.5220   19.0330 C.3   291  SER291      0.2130
    100  OG       -24.9060   87.6830   20.3450 O.3   291  SER291     -0.2179
    101  N        -21.3760   87.8830   19.2520 N.am  292  LYS292     -0.1977
    102  CA       -20.1940   87.9300   20.2120 C.3   292  LYS292      0.1596
    103  C        -20.5110   89.1070   21.0750 C.2   292  LYS292      0.2287
    104  O        -19.8220   90.1110   21.0750 O.2   292  LYS292     -0.2864
    105  CB       -18.8140   88.0270   19.5290 C.3   292  LYS292      0.0298
    106  CG       -18.4990   86.9430   18.4350 C.3   292  LYS292      0.0038
    107  CD       -17.0500   86.4640   18.4940 C.3   292  LYS292      0.0206
    108  CE       -16.5640   85.7830   17.2030 C.3   292  LYS292      0.1093
    109  NZ       -15.8990   86.7610   16.2310 N.3   292  LYS292     -0.1314
    110  N        -22.9630   90.7350   20.1860 N.3   294  VAL294     -0.1245
    111  CA       -23.5840   91.6530   19.2370 C.3   294  VAL294      0.1561
    112  C        -25.1030   91.6090   19.4790 C.2   294  VAL294      0.2260
    113  O        -25.7080   90.5770   19.2750 O.2   294  VAL294     -0.2867
    114  CB       -23.2310   91.3120   17.7990 C.3   294  VAL294      0.0252
    115  CG1      -24.1810   92.0780   16.8360 C.3   294  VAL294      0.0019
    116  CG2      -21.7720   91.6800   17.5130 C.3   294  VAL294      0.0019
    117  N        -28.0810   95.7790   17.0270 N.3   298  LYS298     -0.1231
    118  CA       -27.0170   95.9830   16.0810 C.3   298  LYS298      0.1693
    119  C        -27.2520   95.1070   14.8160 C.2   298  LYS298      0.2592
    120  O        -27.1010   95.5360   13.6770 O.2   298  LYS298     -0.2718
    121  CB       -25.6790   95.6800   16.7250 C.3   298  LYS298      0.0285
    122  CG       -24.5680   96.6880   16.4080 C.3   298  LYS298      0.0035
    123  CD       -25.0910   98.1740   16.4300 C.3   298  LYS298      0.0206
    124  CE       -24.3290   99.1600   15.4270 C.3   298  LYS298      0.1093
    125  NZ       -24.9520  100.5620   15.3710 N.3   298  LYS298     -0.1314
    126  N        -27.6680   93.8910   15.0840 N.am  299  ALA299     -0.1966
    127  CA       -27.9860   92.9220   14.0830 C.3   299  ALA299      0.1728
    128  C        -29.1010   93.3700   13.1210 C.2   299  ALA299      0.2616
    129  O        -29.0870   92.9940   12.0120 O.2   299  ALA299     -0.2715
    130  CB       -28.3510   91.5600   14.7660 C.3   299  ALA299      0.0334
    131  N        -30.0510   94.1920   13.5680 N.am  300  MET300     -0.1977
    132  CA       -31.1690   94.5590   12.6970 C.3   300  MET300      0.1605
    133  C        -31.0600   95.9850   12.0810 C.2   300  MET300      0.2287
    134  O        -31.6820   96.2900   11.0290 O.2   300  MET300     -0.2864
    135  CB       -32.5070   94.3510   13.4580 C.3   300  MET300      0.0413
    136  CG       -32.7240   92.9070   14.0120 C.3   300  MET300      0.0598
    137  SD       -33.0020   91.6970   12.6160 S.3   300  MET300     -0.1393
    138  CE       -32.5190   90.1310   13.5070 C.3   300  MET300      0.0692
    139  N        -27.7320   97.8770   12.0170 N.3   302  GLN302     -0.1245
    140  CA       -26.3770   98.3670   11.7740 C.3   302  GLN302      0.1566
    141  C        -26.1560   98.8820   10.3570 C.2   302  GLN302      0.2260
    142  O        -26.2920   98.1780    9.3920 O.2   302  GLN302     -0.2867
    143  CB       -25.3420   97.3090   12.0910 C.3   302  GLN302      0.0367
    144  CG       -23.8950   97.7490   11.9000 C.3   302  GLN302      0.0905
    145  CD       -23.0010   96.8290   12.6820 C.2   302  GLN302      0.2608
    146  OE1      -21.8260   96.6930   12.4030 O.2   302  GLN302     -0.2717
    147  NE2      -23.5960   96.1380   13.6590 N.am  302  GLN302     -0.0878
    148  N        -23.7670   99.6240    8.2610 N.3   304  ASP304     -0.1225
    149  CA       -22.8110   99.2730    7.2320 C.3   304  ASP304      0.1805
    150  C        -22.6750   97.7800    7.1310 C.2   304  ASP304      0.2598
    151  O        -21.6330   97.2660    6.7720 O.2   304  ASP304     -0.2718
    152  CB       -21.4490   99.9640    7.5030 C.3   304  ASP304      0.1424
    153  CG       -20.8160   99.5300    8.8580 C.2   304  ASP304      0.3668
    154  OD1      -21.6130   99.0320    9.7010 O.co2 304  ASP304     -0.2456
    155  OD2      -19.5610   99.6230    9.1540 O.co2 304  ASP304     -0.2456
    156  N        -23.7080   97.0490    7.4740 N.am  305  SER305     -0.1952
    157  CA       -23.6060   95.6130    7.2920 C.3   305  SER305      0.1924
    158  C        -24.6070   95.2090    6.2660 C.2   305  SER305      0.2314
    159  O        -25.6940   95.7840    6.2190 O.2   305  SER305     -0.2863
    160  CB       -23.9100   94.8640    8.5910 C.3   305  SER305      0.2116
    161  OG       -23.8880   93.4460    8.3570 O.3   305  SER305     -0.2180
    162  N        -25.8380   92.3120    6.2980 N.3   307  ARG307     -0.1231
    163  CA       -26.6360   91.3470    7.0070 C.3   307  ARG307      0.1694
    164  C        -27.8540   91.9560    7.6730 C.2   307  ARG307      0.2592
    165  O        -28.7750   91.2200    7.9830 O.2   307  ARG307     -0.2718
    166  CB       -25.8120   90.7120    8.1370 C.3   307  ARG307      0.0321
    167  CG       -24.8320   89.6840    7.7240 C.3   307  ARG307      0.0489
    168  CD       -23.6630   89.7080    8.6410 C.3   307  ARG307      0.2205
    169  NE       -22.4740   88.8900    8.3810 N.pl3 307  ARG307     -0.0865
    170  CZ       -21.5760   88.6330    9.3780 C.cat 307  ARG307      0.5346
    171  NH1      -21.7970   89.1090   10.6170 N.pl3 307  ARG307      0.1354
    172  NH2      -20.4800   87.9110    9.1540 N.pl3 307  ARG307      0.1354
    173  N        -27.8390   93.2610    7.9640 N.am  308  SER308     -0.1952
    174  CA       -28.9570   93.8790    8.6750 C.3   308  SER308      0.1924
    175  C        -29.9520   94.5670    7.7760 C.2   308  SER308      0.2314
    176  O        -29.6190   94.9600    6.6580 O.2   308  SER308     -0.2863
    177  CB       -28.4890   94.8440    9.7140 C.3   308  SER308      0.2116
    178  OG       -28.0910   96.0260    9.1090 O.3   308  SER308     -0.2180
@<TRIPOS>BOND
     1     6     5    1
     2     1     2    1
     3     5     2    1
     4     2     3    1
     5   159   158    2
     6   158   157    1
     7    14    16   ar
     8    14    12   ar
     9   162   163    1
    10    16    15   ar
    11   176   175    2
    12     7     3   am
    13     7     8    1
    14   151   150    2
    15   163   164    1
    16   163   166    1
    17     3     4    2
    18   150   149    1
    19   150   156   am
    20   149   152    1
    21   149   148    1
    22   157   156    1
    23   157   160    1
    24    10     9    2
    25    12    11    1
    26    12    13   ar
    27   152   153    1
    28    11     8    1
    29   164   173   am
    30   164   165    2
    31   167   166    1
    32   167   168    1
    33     9     8    1
    34     9    17   am
    35   175   174    1
    36   173   174    1
    37    15    13   ar
    38    18    17    1
    39    18    21    1
    40    18    19    1
    41   161   160    1
    42   169   168    1
    43   169   170    2
    44    21    22    1
    45    20    19    2
    46   174   177    1
    47    19    27   am
    48   153   155   ar
    49   153   154   ar
    50   178   177    1
    51   172   170    1
    52   170   171    1
    53   142   141    2
    54    22    23   ar
    55    22    24   ar
    56    36    35    1
    57    36    37    2
    58    30    29    2
    59    27    28    1
    60    35    34    1
    61    35    38    1
    62    29    34   am
    63    29    28    1
    64    23    25   ar
    65   141   140    1
    66    28    31    1
    67    45    46    1
    68    24    26   ar
    69   134   133    2
    70    38    39    1
    71    25    26   ar
    72    48    47    2
    73   140   139    1
    74   140   143    1
    75   144   143    1
    76   144   145    1
    77   129   128    2
    78   133   132    1
    79    31    33    1
    80    31    32    1
    81    65    64    1
    82    46    47    1
    83    46    49    1
    84   146   145    2
    85    47    53   am
    86    39    40    1
    87   137   138    1
    88   137   136    1
    89   145   147   am
    90   132   135    1
    91   132   131    1
    92   128   131   am
    93   128   127    1
    94    49    50    1
    95   135   136    1
    96    40    41    1
    97    53    54    1
    98   120   119    2
    99    54    55    1
   100    54    57    1
   101    64    61    1
   102    55    56    2
   103    55    60   am
   104   127   130    1
   105   127   126    1
   106    60    61    1
   107    61    62    1
   108    50    51   ar
   109    50    52   ar
   110   119   126   am
   111   119   118    1
   112    41    42    2
   113    86    84   ar
   114    86    85   ar
   115    57    59    1
   116    57    58    1
   117   125   124    1
   118   124   123    1
   119    84    82   ar
   120    85    83   ar
   121    62    63    2
   122    42    43    1
   123    42    44    1
   124   118   121    1
   125   118   117    1
   126   109   108    1
   127   122   123    1
   128   122   121    1
   129    82    83   ar
   130    82    81    1
   131   115   114    1
   132   108   107    1
   133   116   114    1
   134    81    78    1
   135    76    75    1
   136   114   111    1
   137    70    67    1
   138    66    67    1
   139    75    72    1
   140   106   107    1
   141   106   105    1
   142    90    89    2
   143    77    78    1
   144    77    73   am
   145    78    79    1
   146    71    72    1
   147    71    68   am
   148    96    99    1
   149    96    97    1
   150    96    95    1
   151    99   100    1
   152    67    68    1
   153    80    79    2
   154   111   112    1
   155   111   110    1
   156   101    97   am
   157   101   102    1
   158   113   112    2
   159    72    73    1
   160   105   102    1
   161    97    98    2
   162    68    69    2
   163    89    95   am
   164    89    88    1
   165    73    74    2
   166   102   103    1
   167    91    88    1
   168    91    92    1
   169    88    87    1
   170   103   104    2
   171    92    94   ar
   172    92    93   ar
