@<TRIPOS>MOLECULE
tmp/1gwsA13.pdb
 217 207 0 0 0
SMALL
GASTEIGER

@<TRIPOS>ATOM
      1  N        -35.8650   78.0460   -3.7460 N.3   225  LEU225     -0.1245
      2  CA       -35.2440   76.9030   -3.0800 C.3   225  LEU225      0.1561
      3  C        -36.0410   76.6570   -1.8050 C.2   225  LEU225      0.2260
      4  O        -36.1180   77.4920   -0.9370 O.2   225  LEU225     -0.2867
      5  CB       -33.8160   77.2610   -2.7090 C.3   225  LEU225      0.0270
      6  CG       -33.1330   76.1650   -1.9050 C.3   225  LEU225      0.0019
      7  CD1      -33.2650   74.7960   -2.5810 C.3   225  LEU225      0.0001
      8  CD2      -31.7140   76.5890   -1.7670 C.3   225  LEU225      0.0001
      9  N        -37.0720   74.6530    1.5950 N.3   227  ARG227     -0.1231
     10  CA       -37.0090   73.6460    2.6270 C.3   227  ARG227      0.1694
     11  C        -38.1930   74.1140    3.3880 C.2   227  ARG227      0.2593
     12  O        -39.2220   74.3610    2.8100 O.2   227  ARG227     -0.2718
     13  CB       -35.8070   73.7350    3.5430 C.3   227  ARG227      0.0321
     14  CG       -34.7410   74.7340    3.3370 C.3   227  ARG227      0.0489
     15  CD       -33.7240   74.5800    4.4820 C.3   227  ARG227      0.2205
     16  NE       -34.3820   74.6720    5.7840 N.pl3 227  ARG227     -0.0865
     17  CZ       -33.7880   74.6670    6.9890 C.cat 227  ARG227      0.5346
     18  NH1      -32.4710   74.4840    7.1020 N.pl3 227  ARG227      0.1354
     19  NH2      -34.5320   74.8410    8.0980 N.pl3 227  ARG227      0.1354
     20  N        -38.1720   74.3730    4.6520 N.am  228  GLY228     -0.1942
     21  CA       -39.5640   74.7660    4.9590 C.3   228  GLY228      0.2014
     22  C        -39.8340   76.1700    5.4780 C.2   228  GLY228      0.2639
     23  O        -40.7000   76.3810    6.3350 O.2   228  GLY228     -0.2714
     24  N        -39.0880   77.1190    4.9580 N.am  229  GLN229     -0.1963
     25  CA       -39.0840   78.3820    5.5610 C.3   229  GLN229      0.1718
     26  C        -40.5100   79.0040    5.5650 C.2   229  GLN229      0.2458
     27  O        -41.3560   78.6050    4.8080 O.2   229  GLN229     -0.2730
     28  CB       -38.0330   79.2090    4.8290 C.3   229  GLN229      0.0407
     29  CG       -38.4290   79.5150    3.4190 C.3   229  GLN229      0.0908
     30  CD       -37.6620   78.6950    2.3320 C.2   229  GLN229      0.2608
     31  OE1      -37.4180   77.4650    2.4770 O.2   229  GLN229     -0.2717
     32  NE2      -37.3170   79.3780    1.2300 N.am  229  GLN229     -0.0878
     33  N        -40.8030   79.9380    6.4480 N.am  230  PRO230     -0.2727
     34  CA       -42.0650   80.6710    6.3550 C.3   230  PRO230      0.1402
     35  C        -42.1030   81.7600    5.2200 C.2   230  PRO230      0.2269
     36  O        -41.0620   82.3110    4.8310 O.2   230  PRO230     -0.2865
     37  CB       -42.1470   81.3480    7.7410 C.3   230  PRO230      0.0296
     38  CG       -40.7360   81.6590    8.0440 C.3   230  PRO230      0.0237
     39  CD       -39.9900   80.3790    7.5940 C.3   230  PRO230      0.0939
     40  N        -42.5090   85.9920    8.5090 N.3   233  ALA233     -0.1231
     41  CA       -41.8890   85.7560    9.8160 C.3   233  ALA233      0.1694
     42  C        -42.1180   86.8780   10.8620 C.2   233  ALA233      0.2592
     43  O        -42.2510   88.0660   10.5290 O.2   233  ALA233     -0.2718
     44  CB       -40.3910   85.4900    9.6950 C.3   233  ALA233      0.0304
     45  N        -42.1450   86.4750   12.1350 N.am  234  LEU234     -0.1966
     46  CA       -42.4150   87.4340   13.1780 C.3   234  LEU234      0.1728
     47  C        -41.2270   87.5570   14.0560 C.2   234  LEU234      0.2616
     48  O        -40.9910   86.7130   14.8590 O.2   234  LEU234     -0.2715
     49  CB       -43.6310   86.9910   14.0020 C.3   234  LEU234      0.0311
     50  CG       -44.0350   87.9210   15.1690 C.3   234  LEU234      0.0022
     51  CD1      -44.2100   89.3390   14.6370 C.3   234  LEU234      0.0001
     52  CD2      -45.3190   87.4230   15.8950 C.3   234  LEU234      0.0001
     53  N        -40.4790   88.6400   13.9300 N.am  235  ILE235     -0.1977
     54  CA       -39.2220   88.8300   14.6430 C.3   235  ILE235      0.1596
     55  C        -39.4630   89.5740   15.9630 C.2   235  ILE235      0.2287
     56  O        -40.1650   90.5740   16.0070 O.2   235  ILE235     -0.2864
     57  CB       -38.2780   89.6090   13.7390 C.3   235  ILE235      0.0276
     58  CG1      -38.3950   89.0830   12.2820 C.3   235  ILE235      0.0022
     59  CG2      -36.8590   89.5670   14.3250 C.3   235  ILE235      0.0022
     60  CD1      -37.4230   89.7960   11.2450 C.3   235  ILE235      0.0001
     61  N        -42.1040   90.4180    8.6970 N.3   256  PHE256     -0.1241
     62  CA       -41.0700   90.4110    7.6920 C.3   256  PHE256      0.1605
     63  C        -41.5080   89.5330    6.5370 C.2   256  PHE256      0.2264
     64  O        -41.9310   88.3710    6.7320 O.2   256  PHE256     -0.2867
     65  CB       -39.7850   89.8780    8.3340 C.3   256  PHE256      0.0534
     66  CG       -38.6340   89.6970    7.3950 C.ar  256  PHE256     -0.0203
     67  CD1      -38.0750   90.7940    6.6990 C.ar  256  PHE256     -0.0042
     68  CD2      -38.0940   88.4480    7.2000 C.ar  256  PHE256     -0.0042
     69  CE1      -37.0300   90.6050    5.7590 C.ar  256  PHE256     -0.0003
     70  CE2      -37.0340   88.2600    6.2830 C.ar  256  PHE256     -0.0003
     71  CZ       -36.4730   89.3460    5.6100 C.ar  256  PHE256     -0.0000
     72  N        -40.5680   87.2470    4.2630 N.3   258  HIS258     -0.1241
     73  CA       -39.4760   86.3470    3.9280 C.3   258  HIS258      0.1621
     74  C        -39.4660   85.8770    2.4870 C.2   258  HIS258      0.2264
     75  O        -38.4260   85.7850    1.9030 O.2   258  HIS258     -0.2867
     76  CB       -39.4500   85.1330    4.8710 C.3   258  HIS258      0.0745
     77  CG       -38.1100   84.4330    4.9400 C.ar  258  HIS258      0.0817
     78  ND1      -37.6750   83.5450    3.9830 N.ar  258  HIS258     -0.2268
     79  CD2      -37.1220   84.4840    5.8700 C.ar  258  HIS258      0.1154
     80  CE1      -36.4810   83.0780    4.3170 C.ar  258  HIS258      0.1986
     81  NE2      -36.1240   83.6270    5.4610 N.ar  258  HIS258     -0.2212
     82  N        -38.2050   88.5110    0.1520 N.3   261  HIS261     -0.1226
     83  CA       -36.7490   88.7920    0.3460 C.3   261  HIS261      0.1752
     84  C        -35.9100   87.7010   -0.3510 C.2   261  HIS261      0.2595
     85  O        -34.8800   87.9770   -0.9820 O.2   261  HIS261     -0.2718
     86  CB       -36.3640   89.1040    1.8450 C.3   261  HIS261      0.0759
     87  CG       -36.5420   90.5440    2.2450 C.ar  261  HIS261      0.0818
     88  ND1      -37.7390   91.0590    2.6880 N.ar  261  HIS261     -0.2268
     89  CD2      -35.6670   91.5880    2.2740 C.ar  261  HIS261      0.1154
     90  CE1      -37.6040   92.3470    2.9630 C.ar  261  HIS261      0.1986
     91  NE2      -36.3450   92.6930    2.7350 N.ar  261  HIS261     -0.2212
     92  N        -36.3690   86.4650   -0.2690 N.am  262  GLU262     -0.1979
     93  CA       -35.7190   85.3910   -1.0050 C.3   262  GLU262      0.1602
     94  C        -35.5680   85.6880   -2.4970 C.2   262  GLU262      0.2287
     95  O        -34.4800   85.5360   -3.0920 O.2   262  GLU262     -0.2864
     96  CB       -36.4650   84.0650   -0.8870 C.3   262  GLU262      0.0415
     97  CG       -36.3420   83.4390    0.4620 C.3   262  GLU262      0.1163
     98  CD       -37.4480   82.4360    0.7140 C.2   262  GLU262      0.3649
     99  OE1      -37.5420   81.5360   -0.1170 O.co2 262  GLU262     -0.2457
    100  OE2      -38.1940   82.5690    1.7390 O.co2 262  GLU262     -0.2457
    101  N        -32.7110   88.1600   -3.0610 N.3   265  ALA265     -0.1245
    102  CA       -31.3430   87.9940   -2.6170 C.3   265  ALA265      0.1562
    103  C        -30.5820   86.9670   -3.4180 C.2   265  ALA265      0.2260
    104  O        -31.1210   86.2330   -4.1960 O.2   265  ALA265     -0.2867
    105  CB       -31.3210   87.6780   -1.1220 C.3   265  ALA265      0.0290
    106  N        -28.7170   84.3350   -2.1340 N.3   267  ASP267     -0.1225
    107  CA       -28.6160   83.0570   -1.5100 C.3   267  ASP267      0.1805
    108  C        -29.2140   83.1550   -0.1450 C.2   267  ASP267      0.2598
    109  O        -29.6830   84.1730    0.2310 O.2   267  ASP267     -0.2718
    110  CB       -27.1930   82.7030   -1.3260 C.3   267  ASP267      0.1424
    111  CG       -26.3920   83.7880   -0.5650 C.2   267  ASP267      0.3668
    112  OD1      -26.9280   84.6620    0.1500 O.co2 267  ASP267     -0.2456
    113  OD2      -25.1590   83.8660   -0.6440 O.co2 267  ASP267     -0.2456
    114  N        -29.1450   82.1180    0.6490 N.am  268  CYS268     -0.1970
    115  CA       -29.6450   82.2590    1.9850 C.3   268  CYS268      0.1712
    116  C        -28.6740   82.8680    2.9750 C.2   268  CYS268      0.2296
    117  O        -29.0760   83.6260    3.8560 O.2   268  CYS268     -0.2864
    118  CB       -30.0970   80.8980    2.5520 C.3   268  CYS268      0.0983
    119  SG       -31.2570   80.0510    1.5070 S.3   268  CYS268     -0.0798
    120  N        -26.2290   85.1110    3.0480 N.3   270  THR270     -0.1203
    121  CA       -26.0190   86.5560    3.2260 C.3   270  THR270      0.1994
    122  C        -26.6610   87.0510    4.5180 C.2   270  THR270      0.2618
    123  O        -26.1130   87.8950    5.2480 O.2   270  THR270     -0.2717
    124  CB       -26.7060   87.3860    2.1140 C.3   270  THR270      0.1784
    125  OG1      -26.1980   87.0580    0.8090 O.3   270  THR270     -0.2211
    126  CG2      -26.3900   88.8560    2.3080 C.3   270  THR270      0.0376
    127  N        -27.8750   86.5900    4.7570 N.am  271  CYS271     -0.1955
    128  CA       -28.5070   86.9140    6.0240 C.3   271  CYS271      0.1843
    129  C        -28.1790   85.8970    7.0600 C.2   271  CYS271      0.2625
    130  O        -27.7780   86.2320    8.1850 O.2   271  CYS271     -0.2714
    131  CB       -30.0140   87.0920    5.8600 C.3   271  CYS271      0.0997
    132  SG       -30.3680   88.2100    4.4910 S.3   271  CYS271     -0.0797
    133  N        -28.4030   84.6420    6.7610 N.am  272  HIS272     -0.1973
    134  CA       -28.1010   83.6390    7.8040 C.3   272  HIS272      0.1656
    135  C        -26.6100   83.3370    7.7340 C.2   272  HIS272      0.2291
    136  O        -26.2030   82.2780    7.3720 O.2   272  HIS272     -0.2864
    137  CB       -28.9310   82.3460    7.6370 C.3   272  HIS272      0.0771
    138  CG       -30.4080   82.5780    7.4190 C.ar  272  HIS272      0.0820
    139  ND1      -31.2950   82.8050    8.4530 N.ar  272  HIS272     -0.2267
    140  CD2      -31.1460   82.6250    6.2850 C.ar  272  HIS272      0.1154
    141  CE1      -32.5130   82.9790    7.9670 C.ar  272  HIS272      0.1986
    142  NE2      -32.4500   82.8850    6.6460 N.ar  272  HIS272     -0.2212
    143  N        -28.8890   78.6290    9.1140 N.3   276  ILE276     -0.1231
    144  CA       -30.2950   78.9400    8.9960 C.3   276  ILE276      0.1692
    145  C        -30.9230   78.6990   10.3820 C.2   276  ILE276      0.2592
    146  O        -30.6840   77.6360   10.9890 O.2   276  ILE276     -0.2718
    147  CB       -30.8910   78.0120    7.9990 C.3   276  ILE276      0.0266
    148  CG1      -30.1270   78.1340    6.6880 C.3   276  ILE276      0.0019
    149  CG2      -32.3260   78.2630    7.8900 C.3   276  ILE276      0.0020
    150  CD1      -30.9310   78.0620    5.3880 C.3   276  ILE276      0.0001
    151  N        -31.6650   79.6940   10.8950 N.am  277  ASP277     -0.1960
    152  CA       -32.3280   79.6300   12.1890 C.3   277  ASP277      0.1840
    153  C        -32.8980   80.9980   12.4320 C.2   277  ASP277      0.2623
    154  O        -32.8500   81.8150   11.5750 O.2   277  ASP277     -0.2715
    155  CB       -31.2850   79.3690   13.3000 C.3   277  ASP277      0.1450
    156  CG       -31.9500   78.9560   14.6720 C.2   277  ASP277      0.3671
    157  OD1      -33.1950   78.9050   14.7780 O.co2 277  ASP277     -0.2456
    158  OD2      -31.3140   78.6120   15.6580 O.co2 277  ASP277     -0.2456
    159  N        -33.4090   81.3020   13.6270 N.am  278  THR278     -0.1937
    160  CA       -33.8200   82.6820   13.8800 C.3   278  THR278      0.2028
    161  C        -32.5270   83.4590   13.9400 C.2   278  THR278      0.2642
    162  O        -31.4730   82.8750   13.9510 O.2   278  THR278     -0.2714
    163  CB       -34.4000   82.8430   15.2990 C.3   278  THR278      0.1808
    164  OG1      -33.4090   82.3930   16.2600 O.3   278  THR278     -0.2208
    165  CG2      -35.6070   82.0610   15.4910 C.3   278  THR278      0.0379
    166  N        -32.6240   84.7500   14.0930 N.am  279  CYS279     -0.1953
    167  CA       -31.5080   85.5610   14.4280 C.3   279  CYS279      0.1843
    168  C        -31.4300   85.6970   15.9390 C.2   279  CYS279      0.2626
    169  O        -30.3400   85.8730   16.5220 O.2   279  CYS279     -0.2714
    170  CB       -31.7650   86.9410   13.9090 C.3   279  CYS279      0.0997
    171  SG       -32.0470   86.9700   12.1270 S.3   279  CYS279     -0.0797
    172  N        -32.5830   85.6000   16.5730 N.am  280  THR280     -0.1950
    173  CA       -32.6650   85.7950   18.0100 C.3   280  THR280      0.1897
    174  C        -32.0650   84.6970   18.8890 C.2   280  THR280      0.2313
    175  O        -31.9010   84.9570   20.0840 O.2   280  THR280     -0.2863
    176  CB       -34.1230   86.0440   18.4710 C.3   280  THR280      0.1794
    177  OG1      -34.9730   85.0310   17.9530 O.3   280  THR280     -0.2208
    178  CG2      -34.6930   87.3400   17.8880 C.3   280  THR280      0.0378
    179  N        -30.0510   94.1920   13.5680 N.3   300  MET300     -0.1245
    180  CA       -31.1690   94.5590   12.6970 C.3   300  MET300      0.1570
    181  C        -31.0600   95.9850   12.0810 C.2   300  MET300      0.2261
    182  O        -31.6820   96.2900   11.0290 O.2   300  MET300     -0.2867
    183  CB       -32.5070   94.3510   13.4580 C.3   300  MET300      0.0387
    184  CG       -32.7240   92.9070   14.0120 C.3   300  MET300      0.0595
    185  SD       -33.0020   91.6970   12.6160 S.3   300  MET300     -0.1393
    186  CE       -32.5190   90.1310   13.5070 C.3   300  MET300      0.0692
    187  N        -31.1910   94.7130    8.2880 N.3   309  CYS309     -0.1235
    188  CA       -32.2690   95.2830    7.4830 C.3   309  CYS309      0.1677
    189  C        -31.8470   96.6950    7.0280 C.2   309  CYS309      0.2270
    190  O        -31.7850   96.9820    5.8200 O.2   309  CYS309     -0.2867
    191  CB       -33.6030   95.3560    8.2190 C.3   309  CYS309      0.0956
    192  SG       -33.9580   94.1340    9.5030 S.3   309  CYS309     -0.0801
    193  N        -28.4390   96.3710    4.6810 N.3   312  CYS312     -0.1235
    194  CA       -28.6650   95.9790    3.3220 C.3   312  CYS312      0.1677
    195  C        -29.3710   97.0620    2.6160 C.2   312  CYS312      0.2270
    196  O        -29.0790   97.3140    1.4510 O.2   312  CYS312     -0.2867
    197  CB       -29.5320   94.7640    3.2010 C.3   312  CYS312      0.0956
    198  SG       -29.4970   94.2600    1.5050 S.3   312  CYS312     -0.0801
    199  N        -42.5080   82.8660   20.3430 N.3   359  LEU359     -0.1245
    200  CA       -41.5470   81.9560   19.7630 C.3   359  LEU359      0.1561
    201  C        -42.0600   80.5640   19.9320 C.2   359  LEU359      0.2260
    202  O        -41.8240   79.6880   19.0710 O.2   359  LEU359     -0.2867
    203  CB       -40.2080   82.0560   20.4520 C.3   359  LEU359      0.0270
    204  CG       -39.4200   83.3710   20.4540 C.3   359  LEU359      0.0019
    205  CD1      -38.3050   83.3460   21.5250 C.3   359  LEU359      0.0001
    206  CD2      -38.8340   83.6570   19.0650 C.3   359  LEU359      0.0001
    207  N        -47.5050   81.6490   13.9100 N.3   366  ARG366     -0.1245
    208  CA       -46.7220   82.8430   13.9430 C.3   366  ARG366      0.1563
    209  C        -46.7170   83.4480   12.5430 C.2   366  ARG366      0.2260
    210  O        -46.8930   84.6690   12.4220 O.2   366  ARG366     -0.2867
    211  CB       -45.3030   82.4890   14.3720 C.3   366  ARG366      0.0307
    212  CG       -44.4050   83.6870   14.6640 C.3   366  ARG366      0.0489
    213  CD       -43.0990   83.3150   15.4170 C.3   366  ARG366      0.2205
    214  NE       -42.5480   82.1090   14.8200 N.pl3 366  ARG366     -0.0865
    215  CZ       -42.4370   80.9560   15.4500 C.cat 366  ARG366      0.5346
    216  NH1      -42.8450   80.8220   16.7380 N.pl3 366  ARG366      0.1354
    217  NH2      -41.9240   79.9310   14.8070 N.pl3 366  ARG366      0.1354
@<TRIPOS>BOND
     1   104   103    2
     2     1     2    1
     3   103   102    1
     4    95    94    2
     5     2     5    1
     6     2     3    1
     7   101   102    1
     8     5     6    1
     9   102   105    1
    10     7     6    1
    11    94    93    1
    12   106   107    1
    13     6     8    1
    14     3     4    2
    15   107   110    1
    16   107   108    1
    17   110   111    1
    18    93    96    1
    19    93    92    1
    20    85    84    2
    21    96    97    1
    22   113   111   ar
    23   111   112   ar
    24    84    92   am
    25    84    83    1
    26   108   109    2
    27   108   114   am
    28    99    98   ar
    29    82    83    1
    30    83    86    1
    31    97    98    1
    32   114   115    1
    33    98   100   ar
    34   125   124    1
    35    32    30   am
    36   196   195    2
    37   198   197    1
    38   119   118    1
    39     9    10    1
    40    86    87    1
    41    75    74    2
    42   115   118    1
    43   115   116    1
    44   124   126    1
    45   124   121    1
    46    87    89   ar
    47    87    88   ar
    48    89    91   ar
    49    30    31    2
    50    30    29    1
    51    74    73    1
    52   195   194    1
    53    10    11    1
    54    10    13    1
    55    88    90   ar
    56    91    90   ar
    57    12    11    2
    58   116   117    2
    59   120   121    1
    60   197   194    1
    61   121   122    1
    62   194   193    1
    63    14    13    1
    64    14    15    1
    65    11    20   am
    66    29    28    1
    67    73    72    1
    68    73    76    1
    69    78    80   ar
    70    78    77   ar
    71    80    81   ar
    72    15    16    1
    73   132   131    1
    74   122   127   am
    75   122   123    2
    76    20    21    1
    77   127   128    1
    78    27    26    2
    79    28    25    1
    80    36    35    2
    81    76    77    1
    82    77    79   ar
    83    24    22   am
    84    24    25    1
    85    21    22    1
    86    35    34    1
    87   150   148    1
    88    81    79   ar
    89    22    23    2
    90    25    26    1
    91    26    33   am
    92    71    69   ar
    93    71    70   ar
    94    69    67   ar
    95    16    17    2
    96   190   189    2
    97   131   128    1
    98   128   129    1
    99    70    68   ar
   100   140   142   ar
   101   140   138   ar
   102    34    33    1
   103    34    37    1
   104    33    39    1
   105    63    64    2
   106    63    62    1
   107   142   141   ar
   108   148   147    1
   109    67    66   ar
   110   133   129   am
   111   133   134    1
   112    17    18    1
   113    17    19    1
   114   189   188    1
   115   129   130    2
   116    68    66   ar
   117   136   135    2
   118    66    65    1
   119   138   137    1
   120   138   139   ar
   121   188   191    1
   122   188   187    1
   123    39    38    1
   124   137   134    1
   125    62    65    1
   126    62    61    1
   127   135   134    1
   128    37    38    1
   129   149   147    1
   130   141   139   ar
   131   147   144    1
   132   191   192    1
   133    40    41    1
   134   144   143    1
   135   144   145    1
   136    44    41    1
   137    41    42    1
   138   145   151   am
   139   145   146    2
   140    43    42    2
   141    42    45   am
   142   151   152    1
   143   182   181    2
   144    60    58    1
   145   154   153    2
   146   181   180    1
   147   171   170    1
   148    45    46    1
   149   152   153    1
   150   152   155    1
   151    58    57    1
   152   210   209    2
   153   153   159   am
   154   209   208    1
   155   185   186    1
   156   185   184    1
   157   180   183    1
   158   180   179    1
   159    46    49    1
   160    46    47    1
   161   155   156    1
   162   183   184    1
   163   159   160    1
   164    57    59    1
   165    57    54    1
   166   160   161    1
   167   160   163    1
   168   170   167    1
   169   207   208    1
   170    53    47   am
   171    53    54    1
   172   161   162    2
   173   161   166   am
   174   208   211    1
   175    49    50    1
   176    47    48    2
   177   166   167    1
   178   211   212    1
   179   167   168    1
   180    51    50    1
   181    54    55    1
   182   212   213    1
   183   156   157   ar
   184   156   158   ar
   185   217   215    1
   186   214   213    1
   187   214   215    2
   188    50    52    1
   189   163   165    1
   190   163   164    1
   191   215   216    1
   192   168   169    2
   193   168   172   am
   194    55    56    2
   195   172   173    1
   196   178   176    1
   197   177   176    1
   198   173   176    1
   199   173   174    1
   200   174   175    2
   201   206   204    1
   202   202   201    2
   203   200   201    1
   204   200   199    1
   205   200   203    1
   206   203   204    1
   207   204   205    1
