@<TRIPOS>MOLECULE
tmp/1gwsA08.pdb
 195 193 0 0 0
SMALL
GASTEIGER

@<TRIPOS>ATOM
      1  N          3.8010   72.7570    0.2490 N.3     8  ILE8       -0.1231
      2  CA         3.8980   71.5680    1.0540 C.3     8  ILE8        0.1692
      3  C          4.7370   71.7630    2.2820 C.2     8  ILE8        0.2593
      4  O          5.9490   71.9590    2.1940 O.2     8  ILE8       -0.2718
      5  CB         4.4330   70.4250    0.2790 C.3     8  ILE8        0.0266
      6  CG1        3.6340   70.2800   -1.0410 C.3     8  ILE8        0.0019
      7  CG2        4.3270   69.1960    1.1080 C.3     8  ILE8        0.0020
      8  CD1        4.1130   69.1810   -1.9480 C.3     8  ILE8        0.0001
      9  N          4.0810   71.7100    3.4390 N.am    9  GLY9       -0.1942
     10  CA         4.7880   71.8370    4.6920 C.3     9  GLY9        0.2014
     11  C          4.2540   71.0110    5.8450 C.2     9  GLY9        0.2639
     12  O          4.4380   71.3710    6.9950 O.2     9  GLY9       -0.2714
     13  N          3.6140   69.8910    5.5630 N.am   10  ALA10      -0.1963
     14  CA         3.1210   69.0170    6.6550 C.3    10  ALA10       0.1728
     15  C          4.1340   68.7480    7.7350 C.2    10  ALA10       0.2616
     16  O          3.7570   68.4520    8.8210 O.2    10  ALA10      -0.2715
     17  CB         2.6430   67.6570    6.1000 C.3    10  ALA10       0.0334
     18  N          5.4180   68.7830    7.4350 N.am   11  MET11      -0.1977
     19  CA         6.4120   68.4330    8.4370 C.3    11  MET11       0.1605
     20  C          6.5780   69.4140    9.6240 C.2    11  MET11       0.2287
     21  O          6.9590   69.0000   10.6940 O.2    11  MET11      -0.2864
     22  CB         7.7560   68.1580    7.7810 C.3    11  MET11       0.0413
     23  CG         7.6110   67.2560    6.6000 C.3    11  MET11       0.0598
     24  SD         8.9820   66.1470    6.4090 S.3    11  MET11      -0.1393
     25  CE         8.8690   65.2550    7.8750 C.3    11  MET11       0.0692
     26  N         10.6310   72.7340   13.6010 N.3    16  LYS16      -0.1231
     27  CA        11.1490   73.6890   12.6660 C.3    16  LYS16       0.1693
     28  C         11.7540   72.9660   11.4510 C.2    16  LYS16       0.2592
     29  O         12.5410   72.0210   11.5930 O.2    16  LYS16      -0.2718
     30  CB        12.2150   74.5600   13.3560 C.3    16  LYS16       0.0285
     31  CG        13.2760   73.7120   14.0950 C.3    16  LYS16       0.0035
     32  CD        14.7280   74.3710   14.2990 C.3    16  LYS16       0.0206
     33  CE        15.0130   74.9610   15.7410 C.3    16  LYS16       0.1093
     34  NZ        14.7100   74.0000   16.8660 N.3    16  LYS16      -0.1314
     35  N         11.3790   73.4200   10.2570 N.am   17  LEU17      -0.1966
     36  CA        11.9360   72.8750    9.0010 C.3    17  LEU17       0.1728
     37  C         13.3820   73.2510    8.8800 C.2    17  LEU17       0.2616
     38  O         13.7520   74.3670    9.2250 O.2    17  LEU17      -0.2715
     39  CB        11.2130   73.4910    7.8220 C.3    17  LEU17       0.0311
     40  CG         9.7360   73.1170    7.8870 C.3    17  LEU17       0.0022
     41  CD1        8.9390   73.6730    6.7330 C.3    17  LEU17       0.0001
     42  CD2        9.5100   71.6070    7.9960 C.3    17  LEU17       0.0001
     43  N         14.2160   72.3160    8.4690 N.am   18  ASP18      -0.1957
     44  CA        15.5470   72.7070    8.0510 C.3    18  ASP18       0.1840
     45  C         15.4750   73.5220    6.7390 C.2    18  ASP18       0.2622
     46  O         16.1620   74.5320    6.5730 O.2    18  ASP18      -0.2715
     47  CB        16.3880   71.4890    7.7510 C.3    18  ASP18       0.1450
     48  CG        16.8980   70.8150    9.0030 C.2    18  ASP18       0.3671
     49  OD1       16.8590   71.4330   10.1280 O.co2  18  ASP18      -0.2456
     50  OD2       17.3940   69.6520    8.9170 O.co2  18  ASP18      -0.2456
     51  N         14.6300   73.0890    5.8040 N.am   19  LEU19      -0.1964
     52  CA        14.6420   73.7410    4.5300 C.3    19  LEU19       0.1713
     53  C         13.3530   74.4750    4.2770 C.2    19  LEU19       0.2458
     54  O         12.4210   74.3300    4.9990 O.2    19  LEU19      -0.2730
     55  CB        14.9570   72.7430    3.3990 C.3    19  LEU19       0.0310
     56  CG        16.4300   72.2760    3.3990 C.3    19  LEU19       0.0022
     57  CD1       16.6170   71.5850    4.7020 C.3    19  LEU19       0.0001
     58  CD2       16.6630   71.2620    2.3700 C.3    19  LEU19       0.0001
     59  N         13.3120   75.2730    3.2240 N.am   20  PRO20      -0.2716
     60  CA        12.0480   75.8870    2.8220 C.3    20  PRO20       0.1536
     61  C         10.9030   74.8660    2.5810 C.2    20  PRO20       0.2598
     62  O         11.0910   73.6930    2.3360 O.2    20  PRO20      -0.2715
     63  CB        12.4280   76.6060    1.5100 C.3    20  PRO20       0.0310
     64  CG        13.9220   76.9540    1.7270 C.3    20  PRO20       0.0237
     65  CD        14.4650   75.7420    2.4180 C.3    20  PRO20       0.0939
     66  N          9.6780   75.3620    2.6310 N.am   21  LYS21      -0.1964
     67  CA         8.5500   74.5790    2.1960 C.3    21  LYS21       0.1728
     68  C          8.5640   74.3740    0.6180 C.2    21  LYS21       0.2616
     69  O          9.1700   75.1690   -0.1460 O.2    21  LYS21      -0.2715
     70  CB         7.3000   75.3110    2.7200 C.3    21  LYS21       0.0311
     71  CG         7.1740   75.2150    4.2890 C.3    21  LYS21       0.0038
     72  CD         5.9010   75.9070    4.8770 C.3    21  LYS21       0.0206
     73  CE         5.7620   75.7160    6.3980 C.3    21  LYS21       0.1093
     74  NZ         4.3660   76.1240    6.9550 N.3    21  LYS21      -0.1314
     75  N          7.8500   73.3570    0.1300 N.am   22  VAL22      -0.1977
     76  CA         7.9400   73.0210   -1.2760 C.3    22  VAL22       0.1596
     77  C          6.7410   73.4320   -2.1150 C.2    22  VAL22       0.2287
     78  O          5.6290   72.9120   -1.9600 O.2    22  VAL22      -0.2864
     79  CB         8.2810   71.5770   -1.4550 C.3    22  VAL22       0.0276
     80  CG1        8.3950   71.1610   -3.0680 C.3    22  VAL22       0.0022
     81  CG2        9.5530   71.2350   -0.6180 C.3    22  VAL22       0.0022
     82  N          8.8180   62.5480    5.6210 N.3    67  LYS67      -0.1245
     83  CA         9.9570   62.8680    4.7960 C.3    67  LYS67       0.1561
     84  C         10.3200   61.7370    3.7960 C.2    67  LYS67       0.2260
     85  O         10.7280   61.9980    2.6490 O.2    67  LYS67      -0.2867
     86  CB        11.1540   63.2780    5.6430 C.3    67  LYS67       0.0271
     87  CG        12.2790   63.9030    4.8420 C.3    67  LYS67       0.0035
     88  CD        13.3920   62.9630    4.6010 C.3    67  LYS67       0.0206
     89  CE        14.7300   63.7320    4.6140 C.3    67  LYS67       0.1093
     90  NZ        15.1660   64.1110    5.9970 N.3    67  LYS67      -0.1314
     91  N          7.5480   61.6020    0.8770 N.3    70  TYR70      -0.1227
     92  CA         7.6960   62.5840   -0.1660 C.3    70  TYR70       0.1736
     93  C          8.8650   62.3580   -1.0570 C.2    70  TYR70       0.2595
     94  O          8.6960   62.4030   -2.2280 O.2    70  TYR70      -0.2718
     95  CB         7.8470   63.9580    0.3700 C.3    70  TYR70       0.0548
     96  CG         6.5710   64.5020    0.9560 C.ar   70  TYR70      -0.0200
     97  CD1        6.4240   64.7080    2.3760 C.ar   70  TYR70      -0.0009
     98  CD2        5.5540   64.9290    0.1260 C.ar   70  TYR70      -0.0009
     99  CE1        5.2400   65.2190    2.8970 C.ar   70  TYR70       0.0417
    100  CE2        4.4450   65.4670    0.6170 C.ar   70  TYR70       0.0417
    101  CZ         4.2880   65.5970    2.0080 C.ar   70  TYR70       0.1957
    102  OH         3.1360   66.1340    2.4340 O.3    70  TYR70      -0.2866
    103  N         10.0660   62.1550   -0.4850 N.am   71  HIS71      -0.1975
    104  CA        11.2750   61.9940   -1.2670 C.3    71  HIS71       0.1656
    105  C         11.1670   60.7630   -2.1580 C.2    71  HIS71       0.2291
    106  O         11.4020   60.8350   -3.3400 O.2    71  HIS71      -0.2864
    107  CB        12.5640   62.0340   -0.3970 C.3    71  HIS71       0.0771
    108  CG        12.9710   63.4400    0.0380 C.ar   71  HIS71       0.0820
    109  ND1       13.9750   63.6890    0.9450 N.ar   71  HIS71      -0.2267
    110  CD2       12.4970   64.6620   -0.3200 C.ar   71  HIS71       0.1154
    111  CE1       14.0960   64.9960    1.1250 C.ar   71  HIS71       0.1986
    112  NE2       13.2070   65.6100    0.3700 N.ar   71  HIS71      -0.2212
    113  N          7.9800   61.4510   -4.6170 N.3    74  CYS74      -0.1221
    114  CA         8.1110   62.6220   -5.4630 C.3    74  CYS74       0.1808
    115  C          9.3060   62.4580   -6.3880 C.2    74  CYS74       0.2601
    116  O          9.2090   62.6400   -7.6300 O.2    74  CYS74      -0.2717
    117  CB         8.3130   63.8940   -4.6800 C.3    74  CYS74       0.0970
    118  SG         7.0360   64.4070   -3.4960 S.3    74  CYS74      -0.0800
    119  N         10.4420   62.1250   -5.8190 N.am   75  ILE75      -0.1979
    120  CA        11.5940   62.0010   -6.6380 C.3    75  ILE75       0.1595
    121  C         11.5640   60.8250   -7.6720 C.2    75  ILE75       0.2287
    122  O         11.8850   61.0060   -8.8580 O.2    75  ILE75      -0.2864
    123  CB        12.8270   62.0160   -5.7650 C.3    75  ILE75       0.0276
    124  CG1       12.8840   63.3260   -5.0100 C.3    75  ILE75       0.0022
    125  CG2       14.0760   62.0300   -6.6150 C.3    75  ILE75       0.0022
    126  CD1       14.0290   63.4030   -4.0520 C.3    75  ILE75       0.0001
    127  N         10.1760   61.7030  -10.7880 N.3    78  HIS78      -0.1241
    128  CA        11.0030   62.5950  -11.5800 C.3    78  HIS78       0.1621
    129  C         12.1690   61.8200  -12.1810 C.2    78  HIS78       0.2264
    130  O         12.6200   62.1440  -13.2420 O.2    78  HIS78      -0.2867
    131  CB        11.5010   63.7910  -10.7670 C.3    78  HIS78       0.0745
    132  CG        10.4130   64.7000  -10.3010 C.ar   78  HIS78       0.0817
    133  ND1       10.6600   65.7970   -9.5240 N.ar   78  HIS78      -0.2268
    134  CD2        9.0740   64.7010  -10.5300 C.ar   78  HIS78       0.1154
    135  CE1        9.5350   66.4650   -9.3310 C.ar   78  HIS78       0.1986
    136  NE2        8.5460   65.7930   -9.8780 N.ar   78  HIS78      -0.2212
    137  N         12.4780   68.2000  -10.6330 N.3    90  PRO90      -0.2102
    138  CA        13.8010   68.2310  -10.0010 C.3    90  PRO90       0.1504
    139  C         14.2110   66.8420   -9.6860 C.2    90  PRO90       0.2576
    140  O         13.3030   66.0950   -9.3640 O.2    90  PRO90      -0.2718
    141  CB        13.5480   68.9880   -8.6610 C.3    90  PRO90       0.0282
    142  CG        12.3930   69.9320   -9.0590 C.3    90  PRO90       0.0208
    143  CD        11.5280   69.1250   -9.9780 C.3    90  PRO90       0.0893
    144  N         15.4990   66.5200   -9.8360 N.am   91  GLN91      -0.1966
    145  CA        16.0370   65.2200   -9.5250 C.3    91  GLN91       0.1733
    146  C         16.5670   65.1880   -8.0790 C.2    91  GLN91       0.2616
    147  O         16.6520   66.2140   -7.3830 O.2    91  GLN91      -0.2715
    148  CB        17.2320   64.9040  -10.4510 C.3    91  GLN91       0.0408
    149  CG        16.8810   64.8430  -11.9300 C.3    91  GLN91       0.0908
    150  CD        15.8030   63.7800  -12.2100 C.2    91  GLN91       0.2608
    151  OE1       14.6320   64.1060  -12.4940 O.2    91  GLN91      -0.2717
    152  NE2       16.1790   62.5290  -12.0760 N.am   91  GLN91      -0.0878
    153  N         17.0710   64.0330   -7.7050 N.am   92  ASP92      -0.1957
    154  CA        17.3750   63.8400   -6.3430 C.3    92  ASP92       0.1840
    155  C         18.4450   64.7680   -5.8270 C.2    92  ASP92       0.2623
    156  O         18.3480   65.2430   -4.7130 O.2    92  ASP92      -0.2715
    157  CB        17.5890   62.3610   -6.0120 C.3    92  ASP92       0.1450
    158  CG        18.7900   61.7440   -6.7450 C.2    92  ASP92       0.3671
    159  OD1       19.4600   62.4770   -7.4810 O.co2  92  ASP92      -0.2456
    160  OD2       19.1550   60.5400   -6.6080 O.co2  92  ASP92      -0.2456
    161  N         19.4160   65.1400   -6.6280 N.am   93  GLY93      -0.1940
    162  CA        20.4030   66.0410   -6.0930 C.3    93  GLY93       0.2014
    163  C         19.9400   67.4900   -6.1690 C.2    93  GLY93       0.2639
    164  O         20.6130   68.3780   -5.7060 O.2    93  GLY93      -0.2714
    165  N         18.8060   67.7700   -6.7750 N.am   94  GLU94      -0.1963
    166  CA        18.4790   69.2020   -6.8450 C.3    94  GLU94       0.1733
    167  C         17.7340   69.7620   -5.6350 C.2    94  GLU94       0.2616
    168  O         16.6780   70.3090   -5.7990 O.2    94  GLU94      -0.2715
    169  CB        17.7020   69.4810   -8.1260 C.3    94  GLU94       0.0429
    170  CG        18.3770   68.7970   -9.2900 C.3    94  GLU94       0.1163
    171  CD        17.9680   69.4120  -10.6280 C.2    94  GLU94       0.3649
    172  OE1       16.9420   69.0100  -11.1650 O.co2  94  GLU94      -0.2457
    173  OE2       18.6490   70.3230  -11.1140 O.co2  94  GLU94      -0.2457
    174  N         18.2870   69.6850   -4.4290 N.am   95  CYS95      -0.1968
    175  CA        17.5090   70.1660   -3.2330 C.3    95  CYS95       0.1712
    176  C         16.7780   71.5060   -3.3340 C.2    95  CYS95       0.2296
    177  O         15.5830   71.5870   -3.1120 O.2    95  CYS95      -0.2864
    178  CB        18.3690   70.1510   -1.9670 C.3    95  CYS95       0.0983
    179  SG        19.5070   68.7470   -2.0180 S.3    95  CYS95      -0.0798
    180  N         13.2460   72.0290   -5.4560 N.3    98  CYS98      -0.1221
    181  CA        11.9760   71.7450   -4.8330 C.3    98  CYS98       0.1808
    182  C         11.8190   72.6940   -3.6200 C.2    98  CYS98       0.2601
    183  O         10.8020   73.3970   -3.4890 O.2    98  CYS98      -0.2717
    184  CB        11.9180   70.2970   -4.3500 C.3    98  CYS98       0.0970
    185  SG        11.5010   69.1020   -5.6020 S.3    98  CYS98      -0.0800
    186  N         12.8370   72.6600   -2.7470 N.am   99  HIS99      -0.1975
    187  CA        12.9240   73.4560   -1.5440 C.3    99  HIS99       0.1656
    188  C         13.3830   74.8870   -1.9090 C.2    99  HIS99       0.2291
    189  O         14.5370   75.2490   -1.6780 O.2    99  HIS99      -0.2864
    190  CB        13.9820   72.8250   -0.6430 C.3    99  HIS99       0.0771
    191  CG        13.6140   71.4770   -0.0850 C.ar   99  HIS99       0.0820
    192  ND1       12.7020   71.3230    0.9230 N.ar   99  HIS99      -0.2267
    193  CD2       14.1060   70.2410   -0.3280 C.ar   99  HIS99       0.1154
    194  CE1       12.6160   70.0440    1.2450 C.ar   99  HIS99       0.1986
    195  NE2       13.4530   69.3630    0.4940 N.ar   99  HIS99      -0.2212
@<TRIPOS>BOND
     1   130   129    2
     2   151   150    2
     3   150   152   am
     4   150   149    1
     5   129   128    1
     6   149   148    1
     7   128   127    1
     8   128   131    1
     9   172   171   ar
    10   173   171   ar
    11   131   132    1
    12   137   138    1
    13   137   143    1
    14   171   170    1
    15   134   132   ar
    16   134   136   ar
    17   148   145    1
    18   132   133   ar
    19   138   139    1
    20   138   141    1
    21   143   142    1
    22   136   135   ar
    23   144   139   am
    24   144   145    1
    25   139   140    2
    26   145   146    1
    27   133   135   ar
    28   170   169    1
    29   142   141    1
    30   122   121    2
    31   169   166    1
    32   146   153   am
    33   146   147    2
    34   153   154    1
    35   121   120    1
    36   116   115    2
    37   159   158   ar
    38   166   165    1
    39   166   167    1
    40   165   163   am
    41   158   160   ar
    42   158   157    1
    43   120   119    1
    44   120   123    1
    45   161   162    1
    46   161   155   am
    47   125   123    1
    48   115   119   am
    49   115   114    1
    50   154   157    1
    51   154   155    1
    52   163   162    1
    53   163   164    2
    54   155   156    2
    55   168   167    2
    56   123   124    1
    57   167   174   am
    58   185   184    1
    59   114   117    1
    60   114   113    1
    61   180   181    1
    62   124   126    1
    63   181   184    1
    64   181   182    1
    65   117   118    1
    66   174   175    1
    67   182   183    2
    68   182   186   am
    69   106   105    2
    70   176   175    1
    71   176   177    2
    72   175   178    1
    73    80    79    1
    74   186   187    1
    75    94    93    2
    76   105   104    1
    77    77    78    2
    78    77    76    1
    79   179   178    1
    80     8     6    1
    81   188   189    2
    82   188   187    1
    83   187   190    1
    84    79    76    1
    85    79    81    1
    86    76    75    1
    87   104   103    1
    88   104   107    1
    89    93   103   am
    90    93    92    1
    91     6     5    1
    92   190   191    1
    93   107   108    1
    94   193   191   ar
    95   193   195   ar
    96   110   108   ar
    97   110   112   ar
    98    92    95    1
    99    92    91    1
   100    69    68    2
   101   191   192   ar
   102   108   109   ar
   103    98   100   ar
   104    98    96   ar
   105    75    68   am
   106     1     2    1
   107     5     2    1
   108     5     7    1
   109   112   111   ar
   110    95    96    1
   111   195   194   ar
   112   100   101   ar
   113    68    67    1
   114   192   194   ar
   115   109   111   ar
   116    96    97   ar
   117     2     3    1
   118    63    64    1
   119    63    60    1
   120    64    65    1
   121   101   102    1
   122   101    99   ar
   123     4     3    2
   124    67    66    1
   125    67    70    1
   126     3     9   am
   127    62    61    2
   128    58    56    1
   129    97    99   ar
   130    65    59    1
   131    61    66   am
   132    61    60    1
   133    85    84    2
   134    70    71    1
   135    60    59    1
   136    59    53   am
   137    55    56    1
   138    55    52    1
   139    56    57    1
   140     9    10    1
   141    84    83    1
   142    53    52    1
   143    53    54    2
   144    71    72    1
   145    52    51    1
   146    88    89    1
   147    88    87    1
   148    89    90    1
   149    10    11    1
   150    83    82    1
   151    83    86    1
   152    87    86    1
   153    72    73    1
   154    13    11   am
   155    13    14    1
   156    51    45   am
   157    11    12    2
   158    17    14    1
   159    73    74    1
   160    24    23    1
   161    24    25    1
   162    46    45    2
   163    23    22    1
   164    14    15    1
   165    41    40    1
   166    45    44    1
   167    18    15   am
   168    18    19    1
   169    15    16    2
   170    47    44    1
   171    47    48    1
   172    22    19    1
   173    39    40    1
   174    39    36    1
   175    40    42    1
   176    44    43    1
   177    19    20    1
   178    43    37   am
   179    37    36    1
   180    37    38    2
   181    50    48   ar
   182    36    35    1
   183    48    49   ar
   184    20    21    2
   185    35    28   am
   186    28    29    2
   187    28    27    1
   188    27    30    1
   189    27    26    1
   190    30    31    1
   191    31    32    1
   192    32    33    1
   193    33    34    1
