@<TRIPOS>MOLECULE
tmp/1gwsA10.pdb
 167 163 0 0 0
SMALL
GASTEIGER

@<TRIPOS>ATOM
      1  N        -13.1360   56.1550   -0.1330 N.3    50  LYS50      -0.1245
      2  CA       -12.8910   57.5700   -0.0470 C.3    50  LYS50       0.1561
      3  C        -11.4160   57.9140   -0.3520 C.2    50  LYS50       0.2260
      4  O        -10.5260   57.4010    0.2910 O.2    50  LYS50      -0.2867
      5  CB       -13.3640   58.0570    1.3260 C.3    50  LYS50       0.0271
      6  CG       -12.9190   59.4700    1.7070 C.3    50  LYS50       0.0035
      7  CD       -13.2610   59.8800    3.2110 C.3    50  LYS50       0.0206
      8  CE       -12.7280   61.2840    3.5190 C.3    50  LYS50       0.1093
      9  NZ       -13.4690   62.0020    4.6030 N.3    50  LYS50      -0.1314
     10  N        -26.7080   65.4130   -1.3460 N.3   141  CYS141     -0.1221
     11  CA       -25.6590   66.2940   -0.8210 C.3   141  CYS141      0.1808
     12  C        -25.7150   66.6670    0.6510 C.2   141  CYS141      0.2601
     13  O        -24.7240   66.8540    1.2560 O.2   141  CYS141     -0.2717
     14  CB       -25.5470   67.5460   -1.6740 C.3   141  CYS141      0.0970
     15  SG       -25.2230   67.1000   -3.4080 S.3   141  CYS141     -0.0800
     16  N        -26.8890   66.7900    1.2020 N.am  142  HIS142     -0.1961
     17  CA       -27.0420   67.4110    2.5010 C.3   142  HIS142      0.1787
     18  C        -27.2450   66.3450    3.5510 C.2   142  HIS142      0.2620
     19  O        -27.8950   65.3210    3.2960 O.2   142  HIS142     -0.2715
     20  CB       -28.2350   68.3950    2.4720 C.3   142  HIS142      0.0785
     21  CG       -27.9910   69.6570    1.6790 C.ar  142  HIS142      0.0821
     22  ND1      -27.1780   70.6880    2.1170 N.ar  142  HIS142     -0.2267
     23  CD2      -28.5290   70.0960    0.5130 C.ar  142  HIS142      0.1154
     24  CE1      -27.2120   71.6840    1.2560 C.ar  142  HIS142      0.1986
     25  NE2      -28.0180   71.3490    0.2610 N.ar  142  HIS142     -0.2212
     26  N        -26.6810   66.5870    4.7150 N.am  143  HIS143     -0.1959
     27  CA       -26.8070   65.6720    5.8410 C.3   143  HIS143      0.1787
     28  C        -26.8290   66.3270    7.1930 C.2   143  HIS143      0.2620
     29  O        -26.5320   67.5280    7.3500 O.2   143  HIS143     -0.2715
     30  CB       -25.6400   64.6540    5.8240 C.3   143  HIS143      0.0785
     31  CG       -24.2340   65.2490    5.7970 C.ar  143  HIS143      0.0821
     32  ND1      -23.3580   65.0350    4.7390 N.ar  143  HIS143     -0.2267
     33  CD2      -23.5360   65.9780    6.7140 C.ar  143  HIS143      0.1154
     34  CE1      -22.1970   65.6280    5.0060 C.ar  143  HIS143      0.1986
     35  NE2      -22.2660   66.1900    6.2040 N.ar  143  HIS143     -0.2212
     36  N        -27.1790   65.5030    8.1770 N.am  144  VAL144     -0.1963
     37  CA       -27.0080   65.7720    9.6200 C.3   144  VAL144      0.1727
     38  C        -26.5820   64.4370   10.2650 C.2   144  VAL144      0.2616
     39  O        -26.8400   63.3490    9.6950 O.2   144  VAL144     -0.2715
     40  CB       -28.2780   66.2260   10.3170 C.3   144  VAL144      0.0290
     41  CG1      -29.0300   67.3560    9.5240 C.3   144  VAL144      0.0023
     42  CG2      -29.1710   65.0120   10.5880 C.3   144  VAL144      0.0023
     43  N        -25.8720   64.5030   11.3960 N.am  145  TYR145     -0.1974
     44  CA       -25.4290   63.2760   12.0530 C.3   145  TYR145      0.1639
     45  C        -26.6050   62.6850   12.8860 C.2   145  TYR145      0.2290
     46  O        -27.1130   63.3440   13.7780 O.2   145  TYR145     -0.2864
     47  CB       -24.2080   63.5170   13.0050 C.3   145  TYR145      0.0560
     48  CG       -23.6650   62.2240   13.6180 C.ar  145  TYR145     -0.0198
     49  CD1      -23.2780   61.1980   12.7850 C.ar  145  TYR145     -0.0009
     50  CD2      -23.5810   62.0230   15.0080 C.ar  145  TYR145     -0.0009
     51  CE1      -22.7960   60.0400   13.2140 C.ar  145  TYR145      0.0417
     52  CE2      -23.0770   60.7720   15.5090 C.ar  145  TYR145      0.0417
     53  CZ       -22.6880   59.7810   14.5560 C.ar  145  TYR145      0.1957
     54  OH       -22.1990   58.5110   14.8690 O.3   145  TYR145     -0.2866
     55  N        -24.4250   59.3640    8.9380 N.3   152  LEU152     -0.1245
     56  CA       -25.0400   60.5010    8.2800 C.3   152  LEU152      0.1561
     57  C        -26.3160   60.0900    7.5630 C.2   152  LEU152      0.2260
     58  O        -26.3710   58.9970    6.9800 O.2   152  LEU152     -0.2867
     59  CB       -24.0810   61.1500    7.3170 C.3   152  LEU152      0.0270
     60  CG       -22.9250   61.7310    8.0970 C.3   152  LEU152      0.0019
     61  CD1      -21.6700   61.7810    7.2420 C.3   152  LEU152      0.0001
     62  CD2      -23.2900   63.1110    8.6400 C.3   152  LEU152      0.0001
     63  N        -33.6160   70.3570    6.7780 N.3   158  LYS158     -0.1245
     64  CA       -32.5140   70.8000    7.6160 C.3   158  LYS158      0.1561
     65  C        -31.2820   71.0650    6.8000 C.2   158  LYS158      0.2260
     66  O        -30.1790   71.2270    7.3450 O.2   158  LYS158     -0.2867
     67  CB       -32.2300   69.7860    8.6950 C.3   158  LYS158      0.0271
     68  CG       -32.9260   70.1870   10.0160 C.3   158  LYS158      0.0035
     69  CD       -34.4230   69.9310    9.9100 C.3   158  LYS158      0.0206
     70  CE       -35.1630   70.3190   11.2020 C.3   158  LYS158      0.1093
     71  NZ       -36.6060   69.8390   11.1630 N.3   158  LYS158     -0.1314
     72  N        -28.3940   72.9720    4.8690 N.3   160  ASP160     -0.1225
     73  CA       -27.8280   74.2840    5.1700 C.3   160  ASP160      0.1805
     74  C        -26.5190   74.3410    4.4180 C.2   160  ASP160      0.2598
     75  O        -26.0680   73.3120    3.8810 O.2   160  ASP160     -0.2718
     76  CB       -27.6260   74.4040    6.7030 C.3   160  ASP160      0.1424
     77  CG       -27.5440   75.8670    7.1850 C.2   160  ASP160      0.3668
     78  OD1      -27.2680   76.7820    6.3360 O.co2 160  ASP160     -0.2456
     79  OD2      -27.7510   76.1820    8.4000 O.co2 160  ASP160     -0.2456
     80  N        -25.8860   75.5140    4.3740 N.am  161  SER161     -0.1938
     81  CA       -24.5540   75.5570    3.7970 C.3   161  SER161      0.2055
     82  C        -23.5340   74.7300    4.6200 C.2   161  SER161      0.2643
     83  O        -23.6690   74.6310    5.8440 O.2   161  SER161     -0.2714
     84  CB       -24.0440   76.9620    3.5590 C.3   161  SER161      0.2130
     85  OG       -22.6050   76.9170    3.4280 O.3   161  SER161     -0.2179
     86  N        -22.4790   74.2270    3.9390 N.am  162  CYS162     -0.1967
     87  CA       -21.5250   73.2970    4.5310 C.3   162  CYS162      0.1712
     88  C        -20.7780   74.0760    5.5090 C.2   162  CYS162      0.2296
     89  O        -20.3450   73.5470    6.5150 O.2   162  CYS162     -0.2864
     90  CB       -20.5850   72.7030    3.4900 C.3   162  CYS162      0.0983
     91  SG       -21.3250   72.3520    1.8190 S.3   162  CYS162     -0.0798
     92  N        -22.0300   75.8450    7.5790 N.3   164  ALA164     -0.1231
     93  CA       -22.6430   75.9050    8.9180 C.3   164  ALA164      0.1694
     94  C        -22.0690   74.8400    9.8520 C.2   164  ALA164      0.2592
     95  O        -22.0970   75.0070   11.0620 O.2   164  ALA164     -0.2718
     96  CB       -24.1180   75.8300    8.8950 C.3   164  ALA164      0.0304
     97  N        -21.5460   73.7460    9.3080 N.am  165  CYS165     -0.1956
     98  CA       -20.9370   72.7490   10.1900 C.3   165  CYS165      0.1843
     99  C        -19.4560   72.3810    9.9580 C.2   165  CYS165      0.2625
    100  O        -18.8440   71.6340   10.7010 O.2   165  CYS165     -0.2714
    101  CB       -21.7990   71.4870   10.2440 C.3   165  CYS165      0.0997
    102  SG       -23.5340   71.7100   10.6330 S.3   165  CYS165     -0.0797
    103  N        -18.8630   72.9040    8.9450 N.am  166  HIS166     -0.1973
    104  CA       -17.5740   72.4750    8.5760 C.3   166  HIS166      0.1656
    105  C        -16.8250   73.8100    8.6320 C.2   166  HIS166      0.2291
    106  O        -17.1410   74.7370    7.8780 O.2   166  HIS166     -0.2864
    107  CB       -17.6430   71.7950    7.1620 C.3   166  HIS166      0.0771
    108  CG       -18.3500   70.4390    7.1470 C.ar  166  HIS166      0.0820
    109  ND1      -17.9240   69.3480    7.9010 N.ar  166  HIS166     -0.2267
    110  CD2      -19.4890   70.0240    6.5070 C.ar  166  HIS166      0.1154
    111  CE1      -18.7660   68.3350    7.7180 C.ar  166  HIS166      0.1986
    112  NE2      -19.7110   68.7070    6.8570 N.ar  166  HIS166     -0.2212
    113  N        -14.8670   64.7470   14.5420 N.3   173  LYS173     -0.1231
    114  CA       -15.5010   63.8650   13.5560 C.3   173  LYS173      0.1693
    115  C        -15.7680   64.5320   12.1930 C.2   173  LYS173      0.2592
    116  O        -15.6110   63.9130   11.1450 O.2   173  LYS173     -0.2718
    117  CB       -16.6820   63.0870   14.1270 C.3   173  LYS173      0.0285
    118  CG       -16.2340   61.7300   14.7230 C.3   173  LYS173      0.0035
    119  CD       -17.3410   60.9990   15.4830 C.3   173  LYS173      0.0206
    120  CE       -16.7660   60.0310   16.5740 C.3   173  LYS173      0.1093
    121  NZ       -15.9860   60.7190   17.6560 N.3   173  LYS173     -0.1314
    122  N        -16.0810   65.8160   12.2540 N.am  174  ARG174     -0.1966
    123  CA       -16.4320   66.6200   11.0980 C.3   174  ARG174      0.1714
    124  C        -15.2440   67.4210   10.5020 C.2   174  ARG174      0.2458
    125  O        -14.6150   68.2560   11.1400 O.2   174  ARG174     -0.2730
    126  CB       -17.4750   67.5950   11.5370 C.3   174  ARG174      0.0347
    127  CG       -16.8590   68.8540   11.9000 C.3   174  ARG174      0.0492
    128  CD       -17.8570   69.8290   12.4180 C.3   174  ARG174      0.2205
    129  NE       -18.8430   69.2200   13.3120 N.pl3 174  ARG174     -0.0865
    130  CZ       -19.2250   69.8240   14.4120 C.cat 174  ARG174      0.5346
    131  NH1      -18.6930   71.0120   14.7110 N.pl3 174  ARG174      0.1354
    132  NH2      -20.1100   69.2520   15.2220 N.pl3 174  ARG174      0.1354
    133  N        -14.9550   67.1990    9.2490 N.am  175  PRO175     -0.2727
    134  CA       -13.7900   67.8350    8.6600 C.3   175  PRO175      0.1402
    135  C        -13.9410   69.3250    8.5530 C.2   175  PRO175      0.2269
    136  O        -15.0400   69.8540    8.5220 O.2   175  PRO175     -0.2865
    137  CB       -13.7670   67.2420    7.2760 C.3   175  PRO175      0.0296
    138  CG       -14.6780   66.0920    7.3710 C.3   175  PRO175      0.0237
    139  CD       -15.7260   66.4130    8.2840 C.3   175  PRO175      0.0939
    140  N        -14.0390   68.9300    3.3580 N.3   180  ALA180     -0.1231
    141  CA       -15.4300   68.5310    3.1890 C.3   180  ALA180      0.1694
    142  C        -15.7720   68.7240    1.7540 C.2   180  ALA180      0.2591
    143  O        -16.1420   67.7670    1.0610 O.2   180  ALA180     -0.2718
    144  CB       -16.3820   69.3700    4.1320 C.3   180  ALA180      0.0304
    145  N        -15.5610   69.9600    1.3140 N.am  181  ALA181     -0.1980
    146  CA       -15.8420   70.3920   -0.0140 C.3   181  ALA181      0.1597
    147  C        -14.9940   69.6090   -0.9850 C.2   181  ALA181      0.2287
    148  O        -15.4990   69.0910   -1.9410 O.2   181  ALA181     -0.2864
    149  CB       -15.5330   71.9410   -0.1620 C.3   181  ALA181      0.0319
    150  N        -13.4380   66.6460   -0.8090 N.3   183  THR183     -0.1203
    151  CA       -13.8770   65.2970   -0.7920 C.3   183  THR183      0.1994
    152  C        -15.2420   65.0670   -1.5260 C.2   183  THR183      0.2618
    153  O        -15.3310   64.1490   -2.3530 O.2   183  THR183     -0.2717
    154  CB       -14.0080   64.8790    0.6880 C.3   183  THR183      0.1784
    155  OG1      -12.7310   64.9040    1.3320 O.3   183  THR183     -0.2211
    156  CG2      -14.4530   63.4250    0.7860 C.3   183  THR183      0.0376
    157  N        -16.3080   65.8430   -1.1980 N.am  184  ALA184     -0.1965
    158  CA       -17.6640   65.6710   -1.7620 C.3   184  ALA184      0.1728
    159  C        -17.8850   66.1800   -3.1900 C.2   184  ALA184      0.2616
    160  O        -18.4620   65.4950   -4.0260 O.2   184  ALA184     -0.2715
    161  CB       -18.7430   66.2880   -0.8460 C.3   184  ALA184      0.0334
    162  N        -17.4820   67.4030   -3.4380 N.am  185  CYS185     -0.1968
    163  CA       -17.7130   68.0050   -4.7030 C.3   185  CYS185      0.1712
    164  C        -16.8620   67.2660   -5.8060 C.2   185  CYS185      0.2296
    165  O        -17.4080   66.6730   -6.7380 O.2   185  CYS185     -0.2864
    166  CB       -17.3550   69.4760   -4.6300 C.3   185  CYS185      0.0983
    167  SG       -17.8770   70.3650   -3.1510 S.3   185  CYS185     -0.0798
@<TRIPOS>BOND
     1   165   164    2
     2   164   163    1
     3   163   166    1
     4   163   162    1
     5   166   167    1
     6   160   159    2
     7   162   159   am
     8    15    14    1
     9   159   158    1
    10   153   152    2
    11   148   147    2
    12   158   157    1
    13   158   161    1
    14    14    11    1
    15   152   157   am
    16   152   151    1
    17    10    11    1
    18   147   146    1
    19    11    12    1
    20   150   151    1
    21   151   154    1
    22     3     2    1
    23     3     4    2
    24   149   146    1
    25     1     2    1
    26     2     5    1
    27   146   145    1
    28    25    23   ar
    29    25    24   ar
    30    23    21   ar
    31    12    16   am
    32    12    13    2
    33   154   156    1
    34   154   155    1
    35   143   142    2
    36    16    17    1
    37    24    22   ar
    38   145   142   am
    39     5     6    1
    40    21    22   ar
    41    21    20    1
    42     6     7    1
    43   142   141    1
    44    91    90    1
    45    20    17    1
    46    17    18    1
    47   141   140    1
    48   141   144    1
    49     7     8    1
    50    19    18    2
    51    85    84    1
    52    90    87    1
    53     8     9    1
    54    18    26   am
    55    84    81    1
    56    81    80    1
    57    81    82    1
    58    75    74    2
    59    86    87    1
    60    86    82   am
    61    80    74   am
    62    74    73    1
    63    87    88    1
    64    82    83    2
    65    26    27    1
    66    32    34   ar
    67    32    31   ar
    68    72    73    1
    69    34    35   ar
    70    73    76    1
    71    88    89    2
    72    31    30    1
    73    31    33   ar
    74    30    27    1
    75    27    28    1
    76    35    33   ar
    77    78    77   ar
    78   110   112   ar
    79   110   108   ar
    80    76    77    1
    81    63    64    1
    82    65    66    2
    83    65    64    1
    84   112   111   ar
    85    58    57    2
    86   108   107    1
    87   108   109   ar
    88   107   104    1
    89    77    79   ar
    90    28    29    2
    91    28    36   am
    92    61    60    1
    93   137   138    1
    94   137   134    1
    95    59    60    1
    96    59    56    1
    97   138   139    1
    98    57    56    1
    99    92    93    1
   100    64    67    1
   101   111   109   ar
   102   106   105    2
   103    60    62    1
   104    36    37    1
   105    56    55    1
   106   139   133    1
   107   136   135    2
   108   135   134    1
   109   104   105    1
   110   104   103    1
   111   134   133    1
   112    67    68    1
   113    96    93    1
   114    93    94    1
   115   103    99   am
   116   133   124   am
   117    97    94   am
   118    97    98    1
   119    41    40    1
   120    37    38    1
   121    37    40    1
   122    39    38    2
   123    94    95    2
   124    69    68    1
   125    69    70    1
   126    99    98    1
   127    99   100    2
   128    98   101    1
   129   101   102    1
   130    38    43   am
   131    40    42    1
   132   124   123    1
   133   124   125    2
   134   123   126    1
   135   123   122    1
   136   116   115    2
   137    71    70    1
   138    43    44    1
   139   126   127    1
   140   127   128    1
   141    44    45    1
   142    44    47    1
   143   115   122   am
   144   115   114    1
   145   128   129    1
   146    49    51   ar
   147    49    48   ar
   148    45    46    2
   149    47    48    1
   150    51    53   ar
   151   129   130    2
   152   114   117    1
   153   114   113    1
   154    48    50   ar
   155   117   118    1
   156   130   131    1
   157   130   132    1
   158    53    54    1
   159    53    52   ar
   160   118   119    1
   161    50    52   ar
   162   119   120    1
   163   120   121    1
