@<TRIPOS>MOLECULE
tmp/1gwsA03.pdb
 163 162 0 0 0
SMALL
GASTEIGER

@<TRIPOS>ATOM
      1  N        -27.7370  113.1450   -0.4640 N.3   328  PHE328     -0.1241
      2  CA       -27.8460  114.5160    0.0050 C.3   328  PHE328      0.1605
      3  C        -28.5720  114.6100    1.3540 C.2   328  PHE328      0.2264
      4  O        -28.1750  115.3510    2.2150 O.2   328  PHE328     -0.2867
      5  CB       -28.5820  115.3740   -1.0250 C.3   328  PHE328      0.0534
      6  CG       -29.0470  116.7130   -0.4890 C.ar  328  PHE328     -0.0203
      7  CD1      -28.1580  117.7290   -0.2040 C.ar  328  PHE328     -0.0042
      8  CD2      -30.3580  116.9590   -0.3140 C.ar  328  PHE328     -0.0042
      9  CE1      -28.5900  118.9770    0.3230 C.ar  328  PHE328     -0.0003
     10  CE2      -30.8150  118.1780    0.1770 C.ar  328  PHE328     -0.0003
     11  CZ       -29.9260  119.2080    0.4890 C.ar  328  PHE328     -0.0000
     12  N        -30.4090  113.8550    5.0520 N.3   330  LYS330     -0.1245
     13  CA       -30.0480  113.1250    6.2390 C.3   330  LYS330      0.1561
     14  C        -31.3090  112.3770    6.7240 C.2   330  LYS330      0.2260
     15  O        -32.4280  112.6710    6.3840 O.2   330  LYS330     -0.2867
     16  CB       -29.4840  114.0840    7.2630 C.3   330  LYS330      0.0271
     17  CG       -30.5900  114.8890    7.9430 C.3   330  LYS330      0.0035
     18  CD       -30.1240  116.2980    8.4100 C.3   330  LYS330      0.0206
     19  CE       -31.1970  116.9590    9.2710 C.3   330  LYS330      0.1093
     20  NZ       -30.7360  118.3060    9.6060 N.3   330  LYS330     -0.1314
     21  N        -34.9720  117.2440   -2.1110 N.3   440  CYS440     -0.1221
     22  CA       -34.2980  118.4740   -2.3530 C.3   440  CYS440      0.1808
     23  C        -34.8280  119.4750   -1.3440 C.2   440  CYS440      0.2601
     24  O        -34.0680  120.3200   -0.8600 O.2   440  CYS440     -0.2717
     25  CB       -34.5250  118.9600   -3.7990 C.3   440  CYS440      0.0970
     26  SG       -34.0330  117.7240   -5.0530 S.3   440  CYS440     -0.0800
     27  N        -36.1090  119.4170   -1.0010 N.am  441  HIS441     -0.1961
     28  CA       -36.5970  120.4330   -0.0830 C.3   441  HIS441      0.1787
     29  C        -36.3020  119.8360    1.2900 C.2   441  HIS441      0.2620
     30  O        -37.2040  119.3890    1.9100 O.2   441  HIS441     -0.2715
     31  CB       -38.1150  120.7090   -0.2930 C.3   441  HIS441      0.0785
     32  CG       -38.4380  121.2990   -1.6480 C.ar  441  HIS441      0.0821
     33  ND1      -38.1400  122.6010   -1.9740 N.ar  441  HIS441     -0.2267
     34  CD2      -38.9450  120.7390   -2.7910 C.ar  441  HIS441      0.1154
     35  CE1      -38.4220  122.8170   -3.2550 C.ar  441  HIS441      0.1986
     36  NE2      -38.9480  121.7180   -3.7630 N.ar  441  HIS441     -0.2212
     37  N        -35.0390  119.7920    1.7420 N.am  442  HIS442     -0.1959
     38  CA       -34.7020  119.1860    3.0640 C.3   442  HIS442      0.1787
     39  C        -35.1400  119.9800    4.3120 C.2   442  HIS442      0.2620
     40  O        -35.4100  121.1340    4.2190 O.2   442  HIS442     -0.2715
     41  CB       -33.2220  118.7280    3.1640 C.3   442  HIS442      0.0785
     42  CG       -32.1700  119.8300    3.2830 C.ar  442  HIS442      0.0821
     43  ND1      -30.8410  119.5450    3.5660 N.ar  442  HIS442     -0.2267
     44  CD2      -32.2260  121.1830    3.1270 C.ar  442  HIS442      0.1154
     45  CE1      -30.1380  120.6760    3.6000 C.ar  442  HIS442      0.1986
     46  NE2      -30.9490  121.6880    3.3260 N.ar  442  HIS442     -0.2212
     47  N        -35.2340  119.3560    5.4840 N.am  443  ASN443     -0.1958
     48  CA       -35.4330  120.1410    6.7390 C.3   443  ASN443      0.1819
     49  C        -36.7290  120.8710    6.8990 C.2   443  ASN443      0.2622
     50  O        -36.8310  121.8000    7.7070 O.2   443  ASN443     -0.2715
     51  CB       -34.2870  121.1260    7.0040 C.3   443  ASN443      0.1195
     52  CG       -32.9820  120.4180    7.1400 C.2   443  ASN443      0.2630
     53  OD1      -32.9770  119.2770    7.5640 O.2   443  ASN443     -0.2716
     54  ND2      -31.8810  121.0280    6.7150 N.am  443  ASN443     -0.0877
     55  N        -37.7200  120.4730    6.1240 N.am  444  SER444     -0.1950
     56  CA       -39.0180  121.0990    6.2940 C.3   444  SER444      0.1924
     57  C        -40.0380  120.0360    6.0010 C.2   444  SER444      0.2314
     58  O        -39.7260  119.0040    5.4230 O.2   444  SER444     -0.2863
     59  CB       -39.1430  122.3960    5.4610 C.3   444  SER444      0.2116
     60  OG       -39.6520  122.2030    4.1500 O.3   444  SER444     -0.2180
     61  N        -40.7840  125.8360    1.3900 N.3   451  PRO451     -0.2102
     62  CA       -40.2920  127.2160    1.3410 C.3   451  PRO451      0.1504
     63  C        -39.1250  127.3220    0.3630 C.2   451  PRO451      0.2576
     64  O        -38.6590  126.3070   -0.1050 O.2   451  PRO451     -0.2718
     65  CB       -39.8440  127.4900    2.7850 C.3   451  PRO451      0.0282
     66  CG       -40.0710  126.2070    3.5350 C.3   451  PRO451      0.0208
     67  CD       -40.3070  125.0920    2.5730 C.3   451  PRO451      0.0893
     68  N        -38.6820  128.5290    0.0490 N.am  452  LYS452     -0.1966
     69  CA       -37.5830  128.7430   -0.8910 C.3   452  LYS452      0.1728
     70  C        -36.2880  128.4410   -0.1850 C.2   452  LYS452      0.2616
     71  O        -36.2340  128.5160    1.0390 O.2   452  LYS452     -0.2715
     72  CB       -37.5610  130.2110   -1.3280 C.3   452  LYS452      0.0311
     73  CG       -38.6090  130.5410   -2.3880 C.3   452  LYS452      0.0038
     74  CD       -38.5260  131.9740   -2.9040 C.3   452  LYS452      0.0206
     75  CE       -39.6880  132.2110   -3.8680 C.3   452  LYS452      0.1093
     76  NZ       -40.9220  131.5380   -3.3000 N.3   452  LYS452     -0.1314
     77  N        -35.2350  128.1460   -0.9250 N.am  453  CYS453     -0.1968
     78  CA       -34.0150  127.8190   -0.2170 C.3   453  CYS453      0.1712
     79  C        -33.5420  129.0080    0.6030 C.2   453  CYS453      0.2296
     80  O        -33.0700  128.8650    1.7110 O.2   453  CYS453     -0.2864
     81  CB       -32.9310  127.3440   -1.1460 C.3   453  CYS453      0.0983
     82  SG       -33.4510  126.1700   -2.4090 S.3   453  CYS453     -0.0798
     83  N        -35.1400  130.9140    2.3130 N.3   455  SER455     -0.1202
     84  CA       -35.8420  131.1340    3.5710 C.3   455  SER455      0.2020
     85  C        -34.8400  130.7600    4.5590 C.2   455  SER455      0.2619
     86  O        -34.8570  131.2480    5.6930 O.2   455  SER455     -0.2717
     87  CB       -37.0510  130.2440    3.7340 C.3   455  SER455      0.2103
     88  OG       -36.6510  128.9420    4.0550 O.3   455  SER455     -0.2182
     89  N        -33.9370  129.8620    4.2040 N.am  456  CYS456     -0.1955
     90  CA       -32.9780  129.6320    5.2630 C.3   456  CYS456      0.1843
     91  C        -31.6130  129.1680    4.9350 C.2   456  CYS456      0.2625
     92  O        -31.1760  128.2150    5.5030 O.2   456  CYS456     -0.2714
     93  CB       -33.5960  128.9240    6.4890 C.3   456  CYS456      0.0997
     94  SG       -34.3520  127.3190    6.2950 S.3   456  CYS456     -0.0797
     95  N        -30.9700  129.8830    4.0080 N.am  457  HIS457     -0.1973
     96  CA       -29.6190  129.6530    3.5520 C.3   457  HIS457      0.1656
     97  C        -29.1030  131.0610    3.2190 C.2   457  HIS457      0.2291
     98  O        -29.5220  131.6920    2.2760 O.2   457  HIS457     -0.2864
     99  CB       -29.5800  128.7250    2.3490 C.3   457  HIS457      0.0771
    100  CG       -29.4770  127.2730    2.6820 C.ar  457  HIS457      0.0820
    101  ND1      -28.2730  126.6730    2.9960 N.ar  457  HIS457     -0.2267
    102  CD2      -30.4110  126.2760    2.6770 C.ar  457  HIS457      0.1154
    103  CE1      -28.4900  125.3730    3.2220 C.ar  457  HIS457      0.1986
    104  NE2      -29.7690  125.0970    3.0110 N.ar  457  HIS457     -0.2212
    105  N        -23.5610  126.8060    7.9450 N.3   468  ARG468     -0.1231
    106  CA       -23.9040  126.0640    6.7290 C.3   468  ARG468      0.1679
    107  C        -23.9420  126.8910    5.3930 C.2   468  ARG468      0.2434
    108  O        -23.8670  128.1040    5.3890 O.2   468  ARG468     -0.2733
    109  CB       -25.1640  125.2520    6.9250 C.3   468  ARG468      0.0321
    110  CG       -26.3970  125.9880    6.4590 C.3   468  ARG468      0.0489
    111  CD       -26.8230  126.9300    7.5020 C.3   468  ARG468      0.2205
    112  NE       -27.9420  127.8030    7.1840 N.pl3 468  ARG468     -0.0865
    113  CZ       -28.7550  128.2870    8.1390 C.cat 468  ARG468      0.5346
    114  NH1      -28.6030  127.9300    9.4210 N.pl3 468  ARG468      0.1354
    115  NH2      -29.7360  129.1140    7.8200 N.pl3 468  ARG468      0.1354
    116  N        -24.0970  126.2490    4.2510 N.am  469  PRO469     -0.2729
    117  CA       -23.8320  126.9430    2.9890 C.3   469  PRO469      0.1401
    118  C        -24.6260  128.1970    2.7800 C.2   469  PRO469      0.2269
    119  O        -25.7880  128.2260    3.1170 O.2   469  PRO469     -0.2865
    120  CB       -24.2230  125.9070    1.9330 C.3   469  PRO469      0.0296
    121  CG       -24.0960  124.6130    2.6790 C.3   469  PRO469      0.0237
    122  CD       -24.5600  124.8810    4.0390 C.3   469  PRO469      0.0939
    123  N        -25.1680  126.3190   -1.6920 N.3   474  ALA474     -0.1231
    124  CA       -26.2410  125.3380   -1.5630 C.3   474  ALA474      0.1694
    125  C        -26.8250  124.9330   -2.9630 C.2   474  ALA474      0.2592
    126  O        -26.9550  123.7610   -3.2400 O.2   474  ALA474     -0.2718
    127  CB       -27.2680  125.8740   -0.7720 C.3   474  ALA474      0.0304
    128  N        -27.1020  125.8670   -3.8550 N.am  475  TYR475     -0.1976
    129  CA       -27.5810  125.4770   -5.2030 C.3   475  TYR475      0.1639
    130  C        -26.4980  124.6220   -5.8740 C.2   475  TYR475      0.2290
    131  O        -26.7500  123.5250   -6.3320 O.2   475  TYR475     -0.2864
    132  CB       -27.8740  126.7000   -6.0470 C.3   475  TYR475      0.0560
    133  CG       -29.0790  127.5130   -5.6270 C.ar  475  TYR475     -0.0198
    134  CD1      -30.3000  126.9230   -5.4410 C.ar  475  TYR475     -0.0009
    135  CD2      -28.9910  128.8900   -5.4310 C.ar  475  TYR475     -0.0009
    136  CE1      -31.4090  127.6770   -5.1280 C.ar  475  TYR475      0.0417
    137  CE2      -30.1260  129.6690   -5.0770 C.ar  475  TYR475      0.0417
    138  CZ       -31.3390  129.0450   -4.9270 C.ar  475  TYR475      0.1957
    139  OH       -32.5290  129.7460   -4.5410 O.3   475  TYR475     -0.2866
    140  N        -24.0090  123.0190   -4.5820 N.3   477  GLN477     -0.1231
    141  CA       -23.7890  121.7220   -4.0170 C.3   477  GLN477      0.1698
    142  C        -24.9590  120.7810   -4.2970 C.2   477  GLN477      0.2592
    143  O        -24.7400  119.6320   -4.5330 O.2   477  GLN477     -0.2718
    144  CB       -23.3210  121.7250   -2.5630 C.3   477  GLN477      0.0381
    145  CG       -23.2980  120.3420   -1.8580 C.3   477  GLN477      0.0905
    146  CD       -22.8690  120.4610   -0.3420 C.2   477  GLN477      0.2608
    147  OE1      -22.8400  119.4590    0.4040 O.2   477  GLN477     -0.2717
    148  NE2      -22.5670  121.6940    0.0900 N.am  477  GLN477     -0.0878
    149  N        -26.1870  121.2670   -4.2940 N.am  478  GLN478     -0.1966
    150  CA       -27.3320  120.3890   -4.5190 C.3   478  GLN478      0.1733
    151  C        -27.4450  119.9600   -5.9920 C.2   478  GLN478      0.2616
    152  O        -27.4810  118.7780   -6.3200 O.2   478  GLN478     -0.2715
    153  CB       -28.6600  121.0230   -4.0070 C.3   478  GLN478      0.0408
    154  CG       -29.8570  120.0690   -4.1160 C.3   478  GLN478      0.0908
    155  CD       -31.1300  120.5840   -3.4830 C.2   478  GLN478      0.2608
    156  OE1      -31.4080  120.3930   -2.2520 O.2   478  GLN478     -0.2717
    157  NE2      -31.9580  121.1810   -4.3150 N.am  478  GLN478     -0.0878
    158  N        -27.4190  120.9270   -6.8760 N.am  479  CYS479     -0.1968
    159  CA       -27.5520  120.6110   -8.2740 C.3   479  CYS479      0.1712
    160  C        -26.3860  119.7270   -8.7720 C.2   479  CYS479      0.2296
    161  O        -26.5700  118.6670   -9.4460 O.2   479  CYS479     -0.2864
    162  CB       -27.6750  121.9250   -9.1070 C.3   479  CYS479      0.0983
    163  SG       -28.8360  123.2390   -8.4870 S.3   479  CYS479     -0.0798
@<TRIPOS>BOND
     1   161   160    2
     2   162   163    1
     3   162   159    1
     4   160   159    1
     5   159   158    1
     6   158   151   am
     7   131   130    2
     8   152   151    2
     9   132   133    1
    10   132   129    1
    11   151   150    1
    12   130   129    1
    13   133   134   ar
    14   133   135   ar
    15   134   136   ar
    16   135   137   ar
    17   129   128    1
    18   136   138   ar
    19   137   138   ar
    20    26    25    1
    21   138   139    1
    22   140   141    1
    23   143   142    2
    24   150   149    1
    25   150   153    1
    26   157   155   am
    27   142   149   am
    28   142   141    1
    29   154   153    1
    30   154   155    1
    31   141   144    1
    32    75    76    1
    33    75    74    1
    34   128   125   am
    35    25    22    1
    36    36    35   ar
    37    36    34   ar
    38   155   156    2
    39    35    33   ar
    40   126   125    2
    41   125   124    1
    42    74    73    1
    43    34    32   ar
    44   144   145    1
    45    82    81    1
    46    73    72    1
    47    22    21    1
    48    22    23    1
    49    33    32   ar
    50   145   146    1
    51   123   124    1
    52    32    31    1
    53   124   127    1
    54    23    27   am
    55    23    24    2
    56    72    69    1
    57    81    78    1
    58     5     6    1
    59     5     2    1
    60    27    28    1
    61    77    78    1
    62    77    70   am
    63    69    70    1
    64    69    68    1
    65     6     8   ar
    66     6     7   ar
    67     1     2    1
    68   146   148   am
    69   146   147    2
    70     8    10   ar
    71    31    28    1
    72    78    79    1
    73     7     9   ar
    74    70    71    2
    75    64    63    2
    76    28    29    1
    77     2     3    1
    78    68    63   am
    79    10    11   ar
    80     9    11   ar
    81    63    62    1
    82    79    80    2
    83    29    37   am
    84    29    30    2
    85    62    61    1
    86    62    65    1
    87     3     4    2
    88    61    67    1
    89    37    38    1
    90   120   121    1
    91   120   117    1
    92    98    97    2
    93    83    84    1
    94    99   100    1
    95    99    96    1
    96    67    66    1
    97   102   100   ar
    98   102   104   ar
    99   121   122    1
   100   100   101   ar
   101   118   117    1
   102   118   119    2
   103    65    66    1
   104   117   116    1
   105   101   103   ar
   106   104   103   ar
   107    38    41    1
   108    38    39    1
   109    44    42   ar
   110    44    46   ar
   111    41    42    1
   112    97    96    1
   113    42    43   ar
   114    46    45   ar
   115    96    95    1
   116    43    45   ar
   117    84    87    1
   118    84    85    1
   119    87    88    1
   120    95    91   am
   121   122   116    1
   122    60    59    1
   123    89    85   am
   124    89    90    1
   125    40    39    2
   126   116   107   am
   127    39    47   am
   128    85    86    2
   129    91    90    1
   130    91    92    2
   131    12    13    1
   132    90    93    1
   133   108   107    2
   134   107   106    1
   135    58    57    2
   136    59    56    1
   137    47    48    1
   138    57    56    1
   139    55    56    1
   140    55    49   am
   141    13    14    1
   142    13    16    1
   143    94    93    1
   144    15    14    2
   145   110   109    1
   146   110   111    1
   147    54    52   am
   148   106   109    1
   149   106   105    1
   150    48    49    1
   151    48    51    1
   152    49    50    2
   153    51    52    1
   154    52    53    2
   155   112   111    1
   156   112   113    2
   157    16    17    1
   158   115   113    1
   159    17    18    1
   160   113   114    1
   161    18    19    1
   162    19    20    1
