@<TRIPOS>MOLECULE
tmp/1gwsA04.pdb
 182 174 0 0 0
SMALL
GASTEIGER

@<TRIPOS>ATOM
      1  N        -29.0610  110.1700   -5.9490 N.3   324  GLY324     -0.1210
      2  CA       -29.2180  111.5870   -6.1400 C.3   324  GLY324      0.1956
      3  C        -29.7670  112.0810   -4.8210 C.2   324  GLY324      0.2612
      4  O        -29.2260  112.9800   -4.1360 O.2   324  GLY324     -0.2717
      5  N        -30.8470  111.4610   -4.3990 N.am  325  CYS325     -0.1970
      6  CA       -31.4750  112.0060   -3.2730 C.3   325  CYS325      0.1712
      7  C        -30.7790  111.5370   -2.0200 C.2   325  CYS325      0.2296
      8  O        -30.5800  112.3210   -1.1050 O.2   325  CYS325     -0.2864
      9  CB       -32.9110  111.5800   -3.2390 C.3   325  CYS325      0.0983
     10  SG       -34.0830  112.5170   -4.2550 S.3   325  CYS325     -0.0798
     11  N        -34.7120  130.4390  -10.8800 N.3   395  ILE395     -0.1301
     12  CA       -33.9340  130.7070   -9.7210 C.3   395  ILE395      0.1246
     13  C        -33.0540  131.8930  -10.0330 C.3   395  ILE395      0.2009
     14  O        -32.0090  131.8140  -10.7810 O.3   395  ILE395     -0.2188
     15  CB       -33.1190  129.4510   -9.3670 C.3   395  ILE395      0.0202
     16  CG1      -33.9790  128.1950   -9.5160 C.3   395  ILE395      0.0015
     17  CG2      -32.5940  129.4980   -7.9170 C.3   395  ILE395      0.0016
     18  CD1      -33.3910  126.9650   -8.8820 C.3   395  ILE395      0.0000
     19  N        -31.4010  131.0780  -13.3100 N.3   405  SER405     -0.1202
     20  CA       -31.3820  129.7320  -13.8520 C.3   405  SER405      0.2020
     21  C        -32.7720  129.1610  -14.0660 C.2   405  SER405      0.2619
     22  O        -33.6190  129.1800  -13.1960 O.2   405  SER405     -0.2717
     23  CB       -30.4800  128.8390  -13.0210 C.3   405  SER405      0.2103
     24  OG       -30.5590  127.4710  -13.3840 O.3   405  SER405     -0.2182
     25  N        -33.0270  128.7270  -15.2810 N.am  406  GLU406     -0.1965
     26  CA       -34.3120  128.1200  -15.6230 C.3   406  GLU406      0.1733
     27  C        -34.0920  126.6280  -15.4230 C.2   406  GLU406      0.2616
     28  O        -33.1510  126.0260  -15.9950 O.2   406  GLU406     -0.2715
     29  CB       -34.7160  128.4090  -17.0780 C.3   406  GLU406      0.0429
     30  CG       -36.2040  128.1870  -17.2390 C.3   406  GLU406      0.1163
     31  CD       -36.6910  128.2700  -18.6760 C.2   406  GLU406      0.3649
     32  OE1      -35.8730  128.0100  -19.6180 O.co2 406  GLU406     -0.2457
     33  OE2      -37.9070  128.5880  -18.8340 O.co2 406  GLU406     -0.2457
     34  N        -34.9220  126.0140  -14.6050 N.am  407  PHE407     -0.1960
     35  CA       -34.6230  124.6390  -14.2680 C.3   407  PHE407      0.1756
     36  C        -35.8760  123.7840  -14.4080 C.2   407  PHE407      0.2461
     37  O        -36.9780  124.2030  -13.9920 O.2   407  PHE407     -0.2730
     38  CB       -33.9770  124.7350  -12.8870 C.3   407  PHE407      0.0574
     39  CG       -34.3730  123.7310  -11.9130 C.ar  407  PHE407     -0.0200
     40  CD1      -33.7470  122.4760  -11.8590 C.ar  407  PHE407     -0.0042
     41  CD2      -35.1970  124.0940  -10.9250 C.ar  407  PHE407     -0.0042
     42  CE1      -34.0490  121.5480  -10.8350 C.ar  407  PHE407     -0.0003
     43  CE2      -35.5180  123.1690   -9.8440 C.ar  407  PHE407     -0.0003
     44  CZ       -34.9400  121.8920   -9.8200 C.ar  407  PHE407     -0.0000
     45  N        -35.7250  122.6570  -15.1120 N.am  408  PRO408     -0.2727
     46  CA       -36.8830  121.8080  -15.4700 C.3   408  PRO408      0.1402
     47  C        -37.3830  120.8970  -14.3390 C.2   408  PRO408      0.2269
     48  O        -37.4000  119.6570  -14.4610 O.2   408  PRO408     -0.2865
     49  CB       -36.4000  121.0520  -16.7350 C.3   408  PRO408      0.0296
     50  CG       -34.8090  120.9690  -16.5160 C.3   408  PRO408      0.0237
     51  CD       -34.4410  122.1530  -15.6480 C.3   408  PRO408      0.0939
     52  N        -40.0750  117.8910  -14.9650 N.3   411  LYS411     -0.1231
     53  CA       -39.4180  116.8480  -15.7210 C.3   411  LYS411      0.1693
     54  C        -38.3810  116.0900  -14.8500 C.2   411  LYS411      0.2591
     55  O        -38.2540  114.8700  -14.9250 O.2   411  LYS411     -0.2718
     56  CB       -38.7080  117.4510  -16.9240 C.3   411  LYS411      0.0285
     57  CG       -38.1030  116.4100  -17.8790 C.3   411  LYS411      0.0035
     58  CD       -37.2830  117.0920  -18.9610 C.3   411  LYS411      0.0206
     59  CE       -37.2990  116.2950  -20.2550 C.3   411  LYS411      0.1093
     60  NZ       -38.7090  116.2580  -20.9280 N.3   411  LYS411     -0.1314
     61  N        -37.6270  116.7960  -14.0380 N.am  412  ILE412     -0.1980
     62  CA       -36.6570  116.1020  -13.2110 C.3   412  ILE412      0.1595
     63  C        -37.3570  115.2090  -12.1950 C.2   412  ILE412      0.2287
     64  O        -36.9810  114.0160  -12.0550 O.2   412  ILE412     -0.2864
     65  CB       -35.7540  117.0950  -12.5550 C.3   412  ILE412      0.0276
     66  CG1      -34.9470  117.7920  -13.6640 C.3   412  ILE412      0.0022
     67  CG2      -34.9080  116.4260  -11.4060 C.3   412  ILE412      0.0022
     68  CD1      -34.2230  118.9890  -13.1380 C.3   412  ILE412      0.0001
     69  N        -38.6080  111.9190  -13.8400 N.3   415  THR415     -0.1203
     70  CA       -37.4580  111.0750  -14.0830 C.3   415  THR415      0.1994
     71  C        -37.0280  110.4180  -12.7840 C.2   415  THR415      0.2617
     72  O        -36.6680  109.2480  -12.7550 O.2   415  THR415     -0.2717
     73  CB       -36.3080  111.9080  -14.6480 C.3   415  THR415      0.1784
     74  OG1      -36.7390  112.5050  -15.8640 O.3   415  THR415     -0.2211
     75  CG2      -35.1460  111.0180  -15.1210 C.3   415  THR415      0.0376
     76  N        -37.0800  111.1460  -11.6840 N.am  416  LEU416     -0.1979
     77  CA       -36.6950  110.5380  -10.3960 C.3   416  LEU416      0.1596
     78  C        -37.6650  109.4040  -10.2140 C.2   416  LEU416      0.2287
     79  O        -37.2710  108.2570  -10.0630 O.2   416  LEU416     -0.2864
     80  CB       -36.7660  111.5760   -9.2740 C.3   416  LEU416      0.0297
     81  CG       -35.6570  112.5730   -9.5720 C.3   416  LEU416      0.0022
     82  CD1      -35.6630  113.8410   -8.7690 C.3   416  LEU416      0.0001
     83  CD2      -34.2730  111.8460   -9.5470 C.3   416  LEU416      0.0001
     84  N        -36.3480  115.1820   -1.0110 N.3   439  GLY439     -0.1210
     85  CA       -35.0310  114.8640   -1.5020 C.3   439  GLY439      0.1956
     86  C        -34.2900  116.1590   -1.8400 C.2   439  GLY439      0.2612
     87  O        -33.1150  116.1720   -1.9000 O.2   439  GLY439     -0.2717
     88  N        -34.9720  117.2440   -2.1110 N.am  440  CYS440     -0.1970
     89  CA       -34.2980  118.4740   -2.3530 C.3   440  CYS440      0.1712
     90  C        -34.8280  119.4750   -1.3440 C.2   440  CYS440      0.2296
     91  O        -34.0680  120.3200   -0.8600 O.2   440  CYS440     -0.2864
     92  CB       -34.5250  118.9600   -3.7990 C.3   440  CYS440      0.0983
     93  SG       -34.0330  117.7240   -5.0530 S.3   440  CYS440     -0.0798
     94  N        -27.1020  125.8670   -3.8550 N.3   475  TYR475     -0.1241
     95  CA       -27.5810  125.4770   -5.2030 C.3   475  TYR475      0.1605
     96  C        -26.4980  124.6220   -5.8740 C.2   475  TYR475      0.2264
     97  O        -26.7500  123.5250   -6.3320 O.2   475  TYR475     -0.2867
     98  CB       -27.8740  126.7000   -6.0470 C.3   475  TYR475      0.0534
     99  CG       -29.0790  127.5130   -5.6270 C.ar  475  TYR475     -0.0201
    100  CD1      -30.3000  126.9230   -5.4410 C.ar  475  TYR475     -0.0009
    101  CD2      -28.9910  128.8900   -5.4310 C.ar  475  TYR475     -0.0009
    102  CE1      -31.4090  127.6770   -5.1280 C.ar  475  TYR475      0.0417
    103  CE2      -30.1260  129.6690   -5.0770 C.ar  475  TYR475      0.0417
    104  CZ       -31.3390  129.0450   -4.9270 C.ar  475  TYR475      0.1957
    105  OH       -32.5290  129.7460   -4.5410 O.3   475  TYR475     -0.2866
    106  N        -26.1870  121.2670   -4.2940 N.3   478  GLN478     -0.1231
    107  CA       -27.3320  120.3890   -4.5190 C.3   478  GLN478      0.1698
    108  C        -27.4450  119.9600   -5.9920 C.2   478  GLN478      0.2592
    109  O        -27.4810  118.7780   -6.3200 O.2   478  GLN478     -0.2718
    110  CB       -28.6600  121.0230   -4.0070 C.3   478  GLN478      0.0381
    111  CG       -29.8570  120.0690   -4.1160 C.3   478  GLN478      0.0905
    112  CD       -31.1300  120.5840   -3.4830 C.2   478  GLN478      0.2608
    113  OE1      -31.4080  120.3930   -2.2520 O.2   478  GLN478     -0.2717
    114  NE2      -31.9580  121.1810   -4.3150 N.am  478  GLN478     -0.0878
    115  N        -27.4190  120.9270   -6.8760 N.am  479  CYS479     -0.1970
    116  CA       -27.5520  120.6110   -8.2740 C.3   479  CYS479      0.1712
    117  C        -26.3860  119.7270   -8.7720 C.2   479  CYS479      0.2296
    118  O        -26.5700  118.6670   -9.4460 O.2   479  CYS479     -0.2864
    119  CB       -27.6750  121.9250   -9.1070 C.3   479  CYS479      0.0983
    120  SG       -28.8360  123.2390   -8.4870 S.3   479  CYS479     -0.0798
    121  N        -26.1840  116.0170   -7.1500 N.3   482  CYS482     -0.1221
    122  CA       -27.1060  115.0320   -7.6580 C.3   482  CYS482      0.1808
    123  C        -26.6830  114.5340   -9.0180 C.2   482  CYS482      0.2601
    124  O        -26.5680  113.3270   -9.2100 O.2   482  CYS482     -0.2717
    125  CB       -28.5530  115.5340   -7.7120 C.3   482  CYS482      0.0970
    126  SG       -29.6020  114.2550   -8.5030 S.3   482  CYS482     -0.0800
    127  N        -26.3870  115.4510   -9.9440 N.am  483  HIS483     -0.1975
    128  CA       -25.9010  115.0670  -11.2850 C.3   483  HIS483      0.1656
    129  C        -24.7490  114.0720  -11.2570 C.2   483  HIS483      0.2291
    130  O        -24.8280  113.1060  -11.9890 O.2   483  HIS483     -0.2864
    131  CB       -25.5740  116.2850  -12.1200 C.3   483  HIS483      0.0771
    132  CG       -26.7920  117.0950  -12.4660 C.ar  483  HIS483      0.0820
    133  ND1      -26.7270  118.3890  -12.8910 N.ar  483  HIS483     -0.2267
    134  CD2      -28.1130  116.7870  -12.3960 C.ar  483  HIS483      0.1154
    135  CE1      -27.9510  118.8440  -13.0990 C.ar  483  HIS483      0.1986
    136  NE2      -28.8120  117.8870  -12.8110 N.ar  483  HIS483     -0.2212
    137  N        -25.9120  110.6210   -9.7450 N.3   486  MET486     -0.1245
    138  CA       -26.7450  109.9290  -10.7240 C.3   486  MET486      0.1570
    139  C        -26.0490  109.6960  -12.0810 C.2   486  MET486      0.2261
    140  O        -26.6410  109.0840  -13.0020 O.2   486  MET486     -0.2867
    141  CB       -28.0890  110.6480  -10.9240 C.3   486  MET486      0.0387
    142  CG       -28.9510  110.6830   -9.6610 C.3   486  MET486      0.0595
    143  SD       -30.6370  111.2430   -9.9300 S.3   486  MET486     -0.1393
    144  CE       -31.4660  109.7450  -10.4750 C.3   486  MET486      0.0692
    145  N        -25.4790  111.7920  -14.4050 N.3   488  ILE488     -0.1245
    146  CA       -26.1070  112.5350  -15.4550 C.3   488  ILE488      0.1561
    147  C        -25.0400  113.1860  -16.3630 C.2   488  ILE488      0.2260
    148  O        -24.0990  113.7980  -15.8800 O.2   488  ILE488     -0.2867
    149  CB       -27.0170  113.5720  -14.8810 C.3   488  ILE488      0.0252
    150  CG1      -28.1820  112.8910  -14.1820 C.3   488  ILE488      0.0019
    151  CG2      -27.5750  114.4220  -15.9780 C.3   488  ILE488      0.0019
    152  CD1      -29.0810  112.0880  -15.1490 C.3   488  ILE488      0.0001
    153  N        -25.4620  115.5780  -18.9250 N.3   490  LYS490     -0.1231
    154  CA       -25.7250  116.9420  -19.2920 C.3   490  LYS490      0.1678
    155  C        -26.8430  117.4130  -18.4250 C.2   490  LYS490      0.2434
    156  O        -27.8140  116.6810  -18.2160 O.2   490  LYS490     -0.2733
    157  CB       -26.2540  117.0340  -20.7630 C.3   490  LYS490      0.0284
    158  CG       -25.2010  116.9660  -21.9030 C.3   490  LYS490      0.0035
    159  CD       -25.7750  117.4470  -23.2980 C.3   490  LYS490      0.0206
    160  CE       -24.6780  117.9840  -24.3100 C.3   490  LYS490      0.1093
    161  NZ       -24.6670  119.4770  -24.6180 N.3   490  LYS490     -0.1314
    162  N        -26.7480  118.6660  -18.0030 N.am  491  PRO491     -0.2729
    163  CA       -25.5980  119.5260  -18.2950 C.3   491  PRO491      0.1401
    164  C        -24.3900  119.0210  -17.5750 C.2   491  PRO491      0.2269
    165  O        -24.5230  118.1900  -16.7230 O.2   491  PRO491     -0.2865
    166  CB       -26.0020  120.8440  -17.6410 C.3   491  PRO491      0.0296
    167  CG       -26.8980  120.4260  -16.5910 C.3   491  PRO491      0.0237
    168  CD       -27.7750  119.4150  -17.3000 C.3   491  PRO491      0.0939
    169  N        -25.0550  126.1490  -19.4460 N.3   498  ASP498     -0.1225
    170  CA       -26.1110  125.1780  -19.6420 C.3   498  ASP498      0.1805
    171  C        -27.1430  125.2220  -18.5210 C.2   498  ASP498      0.2598
    172  O        -28.2080  124.6420  -18.6860 O.2   498  ASP498     -0.2718
    173  CB       -25.5780  123.7510  -19.7130 C.3   498  ASP498      0.1424
    174  CG       -25.0720  123.3350  -21.0810 C.2   498  ASP498      0.3668
    175  OD1      -25.0580  124.0910  -22.1020 O.co2 498  ASP498     -0.2456
    176  OD2      -24.5910  122.1810  -21.1900 O.co2 498  ASP498     -0.2456
    177  N        -26.8320  125.8530  -17.3820 N.am  499  CYS499     -0.1970
    178  CA       -27.7690  125.9970  -16.2470 C.3   499  CYS499      0.1712
    179  C        -28.1390  127.4700  -16.0510 C.2   499  CYS499      0.2296
    180  O        -29.2130  127.7670  -15.5000 O.2   499  CYS499     -0.2864
    181  CB       -27.1170  125.5860  -14.9160 C.3   499  CYS499      0.0983
    182  SG       -27.1430  123.8910  -14.3690 S.3   499  CYS499     -0.0798
@<TRIPOS>BOND
     1   161   160    1
     2   160   159    1
     3   159   158    1
     4   175   174   ar
     5   158   157    1
     6   176   174   ar
     7   174   173    1
     8    60    59    1
     9   157   154    1
    10    59    58    1
    11   173   170    1
    12   170   169    1
    13   170   171    1
    14    32    31   ar
    15   154   153    1
    16   154   155    1
    17    58    57    1
    18    33    31   ar
    19   172   171    2
    20    31    30    1
    21   171   177   am
    22   155   156    2
    23   155   162   am
    24   163   162    1
    25   163   166    1
    26   163   164    1
    27   162   168    1
    28    57    56    1
    29   166   167    1
    30   164   165    2
    31   177   178    1
    32   168   167    1
    33    30    29    1
    34    29    26    1
    35    56    53    1
    36    49    50    1
    37    49    46    1
    38    50    51    1
    39   147   148    2
    40   147   146    1
    41   178   179    1
    42   178   181    1
    43   179   180    2
    44    28    27    2
    45   151   149    1
    46    74    73    1
    47    53    52    1
    48    53    54    1
    49    51    45    1
    50    26    27    1
    51    26    25    1
    52    46    45    1
    53    46    47    1
    54   146   149    1
    55   146   145    1
    56    27    34   am
    57    25    21   am
    58   152   150    1
    59    75    73    1
    60    45    36   am
    61    55    54    2
    62   181   182    1
    63   149   150    1
    64    54    61   am
    65    73    70    1
    66    34    35    1
    67    48    47    2
    68    36    35    1
    69    36    37    2
    70    35    38    1
    71    70    69    1
    72    70    71    1
    73    21    20    1
    74    21    22    2
    75    61    62    1
    76    20    19    1
    77    20    23    1
    78    66    68    1
    79    66    65    1
    80    24    23    1
    81    62    65    1
    82    62    63    1
    83   135   133   ar
    84   135   136   ar
    85   140   139    2
    86   133   132   ar
    87    38    39    1
    88   136   134   ar
    89    71    72    2
    90    71    76   am
    91    65    67    1
    92   132   134   ar
    93   132   131    1
    94    63    64    2
    95   131   128    1
    96   139   138    1
    97   130   129    2
    98    39    40   ar
    99    39    41   ar
   100    40    42   ar
   101    76    77    1
   102   128   129    1
   103   128   127    1
   104    41    43   ar
   105   141   138    1
   106   141   142    1
   107    11    12    1
   108    42    44   ar
   109    14    13    1
   110   138   137    1
   111   144   143    1
   112    77    78    1
   113    77    80    1
   114    78    79    2
   115    13    12    1
   116   127   123   am
   117   143   142    1
   118    43    44   ar
   119    12    15    1
   120    81    83    1
   121    81    80    1
   122    81    82    1
   123    16    15    1
   124    16    18    1
   125   118   117    2
   126    15    17    1
   127   124   123    2
   128   119   120    1
   129   119   116    1
   130   123   122    1
   131   117   116    1
   132   126   125    1
   133   116   115    1
   134   125   122    1
   135   122   121    1
   136   115   108   am
   137    97    96    2
   138   109   108    2
   139     2     1    1
   140     2     3    1
   141    98    99    1
   142    98    95    1
   143   108   107    1
   144    96    95    1
   145    99   100   ar
   146    99   101   ar
   147   100   102   ar
   148   101   103   ar
   149    95    94    1
   150   102   104   ar
   151   103   104   ar
   152    93    92    1
   153   104   105    1
   154     3     5   am
   155     3     4    2
   156   107   106    1
   157   107   110    1
   158     5     6    1
   159   114   112   am
   160    10     9    1
   161   111   110    1
   162   111   112    1
   163    92    89    1
   164   112   113    2
   165     6     9    1
   166     6     7    1
   167    89    88    1
   168    89    90    1
   169    88    86   am
   170     7     8    2
   171    87    86    2
   172    86    85    1
   173    85    84    1
   174    90    91    2
