@<TRIPOS>MOLECULE
tmp/1gwsA07.pdb
 201 193 0 0 0
SMALL
GASTEIGER

@<TRIPOS>ATOM
      1  N          3.8010   72.7570    0.2490 N.3     8  ILE8       -0.1245
      2  CA         3.8980   71.5680    1.0540 C.3     8  ILE8        0.1561
      3  C          4.7370   71.7630    2.2820 C.2     8  ILE8        0.2260
      4  O          5.9490   71.9590    2.1940 O.2     8  ILE8       -0.2867
      5  CB         4.4330   70.4250    0.2790 C.3     8  ILE8        0.0252
      6  CG1        3.6340   70.2800   -1.0410 C.3     8  ILE8        0.0019
      7  CG2        4.3270   69.1960    1.1080 C.3     8  ILE8        0.0019
      8  CD1        4.1130   69.1810   -1.9480 C.3     8  ILE8        0.0001
      9  N          7.8500   73.3570    0.1300 N.3    22  VAL22      -0.1231
     10  CA         7.9400   73.0210   -1.2760 C.3    22  VAL22       0.1692
     11  C          6.7410   73.4320   -2.1150 C.2    22  VAL22       0.2592
     12  O          5.6290   72.9120   -1.9600 O.2    22  VAL22      -0.2718
     13  CB         8.2810   71.5770   -1.4550 C.3    22  VAL22       0.0266
     14  CG1        8.3950   71.1610   -3.0680 C.3    22  VAL22       0.0020
     15  CG2        9.5530   71.2350   -0.6180 C.3    22  VAL22       0.0020
     16  N          6.9350   74.4460   -2.9440 N.am   23  ALA23      -0.1966
     17  CA         5.8710   74.8540   -3.8730 C.3    23  ALA23       0.1728
     18  C          5.5810   73.6780   -4.7980 C.2    23  ALA23       0.2616
     19  O          6.5030   73.0030   -5.1710 O.2    23  ALA23      -0.2715
     20  CB         6.2870   76.0530   -4.7160 C.3    23  ALA23       0.0334
     21  N          4.3100   73.4480   -5.1550 N.am   24  PHE24      -0.1960
     22  CA         3.8880   72.3280   -5.9980 C.3    24  PHE24       0.1771
     23  C          2.7330   72.8170   -6.8310 C.2    24  PHE24       0.2619
     24  O          1.7380   73.3870   -6.2840 O.2    24  PHE24      -0.2715
     25  CB         3.3920   71.1750   -5.0880 C.3    24  PHE24       0.0574
     26  CG         2.9530   69.8960   -5.8300 C.ar   24  PHE24      -0.0200
     27  CD1        1.6080   69.5420   -5.9120 C.ar   24  PHE24      -0.0042
     28  CD2        3.8650   69.0500   -6.3650 C.ar   24  PHE24      -0.0042
     29  CE1        1.1970   68.3760   -6.5410 C.ar   24  PHE24      -0.0003
     30  CE2        3.4790   67.9130   -6.9740 C.ar   24  PHE24      -0.0003
     31  CZ         2.1430   67.5700   -7.0560 C.ar   24  PHE24      -0.0000
     32  N          2.7710   72.5760   -8.1230 N.am   25  ARG25      -0.1977
     33  CA         1.6690   73.0640   -8.9040 C.3    25  ARG25       0.1597
     34  C          0.8560   71.8430   -9.2840 C.2    25  ARG25       0.2287
     35  O          1.2860   71.0090  -10.0800 O.2    25  ARG25      -0.2864
     36  CB         2.1550   73.7850  -10.1420 C.3    25  ARG25       0.0334
     37  CG         3.1510   74.9410   -9.8970 C.3    25  ARG25       0.0492
     38  CD         3.7010   75.5000  -11.2620 C.3    25  ARG25       0.2205
     39  NE         4.7380   76.5000  -11.0840 N.pl3  25  ARG25      -0.0865
     40  CZ         5.3460   77.1430  -12.0730 C.cat  25  ARG25       0.5346
     41  NH1        5.0530   76.8570  -13.3410 N.pl3  25  ARG25       0.1354
     42  NH2        6.2590   78.0740  -11.7810 N.pl3  25  ARG25       0.1354
     43  N         -0.3980   71.4120  -12.9390 N.3    28  GLN28      -0.1231
     44  CA         0.6950   71.0320  -13.8250 C.3    28  GLN28       0.1698
     45  C          0.9570   69.5320  -13.6140 C.2    28  GLN28       0.2592
     46  O          1.3240   68.8590  -14.5250 O.2    28  GLN28      -0.2718
     47  CB         1.9490   71.7940  -13.4840 C.3    28  GLN28       0.0381
     48  CG         3.2150   71.3570  -14.2660 C.3    28  GLN28       0.0905
     49  CD         4.4530   72.0180  -13.6340 C.2    28  GLN28       0.2608
     50  OE1        5.2480   72.6380  -14.3070 O.2    28  GLN28      -0.2717
     51  NE2        4.5750   71.9110  -12.3380 N.am   28  GLN28      -0.0878
     52  N          0.7170   69.0110  -12.4000 N.am   29  HIS29      -0.1976
     53  CA         1.0350   67.6260  -12.1450 C.3    29  HIS29       0.1656
     54  C         -0.0560   66.6950  -12.6970 C.2    29  HIS29       0.2291
     55  O          0.1640   65.6070  -13.1510 O.2    29  HIS29      -0.2864
     56  CB         1.3490   67.4270  -10.6380 C.3    29  HIS29       0.0771
     57  CG         2.8080   67.5580  -10.3040 C.ar   29  HIS29       0.0820
     58  ND1        3.3890   68.7610   -9.9580 N.ar   29  HIS29      -0.2267
     59  CD2        3.8180   66.6520  -10.3410 C.ar   29  HIS29       0.1154
     60  CE1        4.6880   68.5840   -9.7660 C.ar   29  HIS29       0.1986
     61  NE2        4.9800   67.3160  -10.0180 N.ar   29  HIS29      -0.2212
     62  N          0.0760   66.4070  -16.4890 N.3    32  ALA32      -0.1231
     63  CA         1.1410   65.5320  -16.8970 C.3    32  ALA32       0.1694
     64  C          0.8310   64.0670  -16.5940 C.2    32  ALA32       0.2591
     65  O          1.0140   63.2510  -17.4910 O.2    32  ALA32      -0.2718
     66  CB         2.4180   65.9610  -16.2990 C.3    32  ALA32       0.0304
     67  N          0.2760   63.7250  -15.4210 N.am   33  VAL33      -0.1980
     68  CA         0.0420   62.3030  -15.1540 C.3    33  VAL33       0.1595
     69  C         -1.1310   61.7300  -15.9420 C.2    33  VAL33       0.2287
     70  O         -1.1700   60.5590  -16.2320 O.2    33  VAL33      -0.2864
     71  CB         0.0020   61.8880  -13.5570 C.3    33  VAL33       0.0276
     72  CG1        0.6420   62.9600  -12.5980 C.3    33  VAL33       0.0022
     73  CG2       -1.3190   61.4890  -13.1180 C.3    33  VAL33       0.0022
     74  N          0.1210   60.5620  -19.0870 N.3    36  MET36      -0.1245
     75  CA         1.0170   59.4310  -18.9900 C.3    36  MET36       0.1570
     76  C          0.1220   58.2090  -18.8890 C.2    36  MET36       0.2261
     77  O          0.6050   57.0830  -18.7540 O.2    36  MET36      -0.2867
     78  CB         1.8960   59.4740  -17.7090 C.3    36  MET36       0.0387
     79  CG         3.0630   60.4450  -17.6630 C.3    36  MET36       0.0595
     80  SD         3.5330   60.7110  -15.9020 S.3    36  MET36      -0.1393
     81  CE         3.6810   59.0810  -15.3730 C.3    36  MET36       0.0692
     82  N         -2.2430   57.8900  -16.4090 N.3    38  LYS38      -0.1245
     83  CA        -2.5160   57.6330  -14.9940 C.3    38  LYS38       0.1561
     84  C         -3.5520   58.5870  -14.3930 C.2    38  LYS38       0.2260
     85  O         -3.8860   59.6150  -14.9730 O.2    38  LYS38      -0.2867
     86  CB        -1.2220   57.7720  -14.1910 C.3    38  LYS38       0.0271
     87  CG        -0.3390   56.5060  -14.1320 C.3    38  LYS38       0.0035
     88  CD         1.1110   56.8400  -13.6030 C.3    38  LYS38       0.0206
     89  CE         1.9700   55.5840  -13.3690 C.3    38  LYS38       0.1093
     90  NZ         1.5570   54.5180  -14.3800 N.3    38  LYS38      -0.1314
     91  N         -2.3120   57.7400   -8.8000 N.3    42  ALA42      -0.1231
     92  CA        -0.8710   57.7120   -8.8600 C.3    42  ALA42       0.1694
     93  C         -0.3270   58.3490   -7.5720 C.2    42  ALA42       0.2592
     94  O          0.6940   57.9530   -7.1280 O.2    42  ALA42      -0.2718
     95  CB        -0.3400   58.4220  -10.1530 C.3    42  ALA42       0.0304
     96  N         -1.0070   59.3190   -6.9720 N.am   43  CYS43      -0.1970
     97  CA        -0.5170   59.9770   -5.7030 C.3    43  CYS43       0.1712
     98  C         -1.4740   59.9620   -4.4800 C.2    43  CYS43       0.2296
     99  O         -1.0910   60.2120   -3.3070 O.2    43  CYS43      -0.2864
    100  CB        -0.0650   61.4080   -5.9650 C.3    43  CYS43       0.0983
    101  SG         0.8420   61.6930   -7.5220 S.3    43  CYS43      -0.0798
    102  N         -0.9420   63.0690    0.1850 N.3    55  PHE55      -0.1298
    103  CA        -0.0220   62.4200   -0.7260 C.3    55  PHE55       0.1290
    104  C          0.5120   61.1480   -0.1260 C.3    55  PHE55       0.2013
    105  O          1.1770   61.1330    0.9880 O.3    55  PHE55      -0.2188
    106  CB         1.1290   63.3610   -1.1020 C.3    55  PHE55       0.0480
    107  CG         2.1350   62.7910   -2.1270 C.ar   55  PHE55      -0.0206
    108  CD1        1.8060   62.7470   -3.4660 C.ar   55  PHE55      -0.0042
    109  CD2        3.4170   62.3480   -1.7420 C.ar   55  PHE55      -0.0042
    110  CE1        2.6870   62.2890   -4.4550 C.ar   55  PHE55      -0.0003
    111  CE2        4.3520   61.9020   -2.7100 C.ar   55  PHE55      -0.0003
    112  CZ         3.9640   61.8630   -4.1150 C.ar   55  PHE55      -0.0000
    113  N          7.5480   61.6020    0.8770 N.3    70  TYR70      -0.1241
    114  CA         7.6960   62.5840   -0.1660 C.3    70  TYR70       0.1605
    115  C          8.8650   62.3580   -1.0570 C.2    70  TYR70       0.2264
    116  O          8.6960   62.4030   -2.2280 O.2    70  TYR70      -0.2867
    117  CB         7.8470   63.9580    0.3700 C.3    70  TYR70       0.0534
    118  CG         6.5710   64.5020    0.9560 C.ar   70  TYR70      -0.0201
    119  CD1        6.4240   64.7080    2.3760 C.ar   70  TYR70      -0.0009
    120  CD2        5.5540   64.9290    0.1260 C.ar   70  TYR70      -0.0009
    121  CE1        5.2400   65.2190    2.8970 C.ar   70  TYR70       0.0417
    122  CE2        4.4450   65.4670    0.6170 C.ar   70  TYR70       0.0417
    123  CZ         4.2880   65.5970    2.0080 C.ar   70  TYR70       0.1957
    124  OH         3.1360   66.1340    2.4340 O.3    70  TYR70      -0.2866
    125  N          8.5500   59.0830   -3.1770 N.3    73  ASN73      -0.1225
    126  CA         7.5700   59.0900   -4.2910 C.3    73  ASN73       0.1785
    127  C          7.6520   60.3000   -5.1610 C.2    73  ASN73       0.2597
    128  O          7.3560   60.2060   -6.3530 O.2    73  ASN73      -0.2718
    129  CB         6.1350   58.8900   -3.7900 C.3    73  ASN73       0.1169
    130  CG         5.9630   57.5960   -2.9920 C.2    73  ASN73       0.2627
    131  OD1        5.8460   56.5040   -3.5760 O.2    73  ASN73      -0.2716
    132  ND2        5.9520   57.7140   -1.6310 N.am   73  ASN73      -0.0877
    133  N          7.9800   61.4510   -4.6170 N.am   74  CYS74      -0.1970
    134  CA         8.1110   62.6220   -5.4630 C.3    74  CYS74       0.1712
    135  C          9.3060   62.4580   -6.3880 C.2    74  CYS74       0.2296
    136  O          9.2090   62.6400   -7.6300 O.2    74  CYS74      -0.2864
    137  CB         8.3130   63.8940   -4.6800 C.3    74  CYS74       0.0983
    138  SG         7.0360   64.4070   -3.4960 S.3    74  CYS74      -0.0798
    139  N          9.2900   59.4310   -9.3100 N.3    77  CYS77      -0.1221
    140  CA         8.6780   59.7650  -10.6010 C.3    77  CYS77       0.1808
    141  C          9.5780   60.6900  -11.4230 C.2    77  CYS77       0.2601
    142  O          9.7610   60.4760  -12.6100 O.2    77  CYS77      -0.2717
    143  CB         7.3220   60.4090  -10.4580 C.3    77  CYS77       0.0970
    144  SG         6.6050   60.7590  -12.0960 S.3    77  CYS77      -0.0800
    145  N         10.1760   61.7030  -10.7880 N.am   78  HIS78      -0.1975
    146  CA        11.0030   62.5950  -11.5800 C.3    78  HIS78       0.1656
    147  C         12.1690   61.8200  -12.1810 C.2    78  HIS78       0.2291
    148  O         12.6200   62.1440  -13.2420 O.2    78  HIS78      -0.2864
    149  CB        11.5010   63.7910  -10.7670 C.3    78  HIS78       0.0771
    150  CG        10.4130   64.7000  -10.3010 C.ar   78  HIS78       0.0820
    151  ND1       10.6600   65.7970   -9.5240 N.ar   78  HIS78      -0.2267
    152  CD2        9.0740   64.7010  -10.5300 C.ar   78  HIS78       0.1154
    153  CE1        9.5350   66.4650   -9.3310 C.ar   78  HIS78       0.1986
    154  NE2        8.5460   65.7930   -9.8780 N.ar   78  HIS78      -0.2212
    155  N         11.0260   59.5300  -15.1130 N.3    81  LEU81      -0.1245
    156  CA        10.7040   60.3350  -16.2590 C.3    81  LEU81       0.1561
    157  C         12.0170   60.7420  -16.9610 C.2    81  LEU81       0.2260
    158  O         12.1330   60.5840  -18.1980 O.2    81  LEU81      -0.2867
    159  CB         9.7790   61.4940  -15.9070 C.3    81  LEU81       0.0270
    160  CG         8.2890   61.1140  -15.7390 C.3    81  LEU81       0.0019
    161  CD1        7.4590   62.2140  -15.0780 C.3    81  LEU81       0.0001
    162  CD2        7.6530   60.7340  -17.0450 C.3    81  LEU81       0.0001
    163  N          9.8410   65.2550  -20.2940 N.3    87  LYS87      -0.1182
    164  CA         9.8740   66.4480  -19.4850 C.3    87  LYS87       0.1909
    165  C          9.6420   66.0010  -17.9870 C.2    87  LYS87       0.2635
    166  O          8.8840   65.0600  -17.6850 O.2    87  LYS87      -0.2714
    167  CB         8.8640   67.5110  -19.9910 C.2    87  LYS87      -0.0028
    168  CG         7.3440   67.1210  -19.9300 C.2    87  LYS87      -0.0272
    169  CD         6.3320   68.1240  -20.6820 C.3    87  LYS87       0.0462
    170  CE         5.9150   69.4290  -19.8670 C.3    87  LYS87       0.1140
    171  NZ         4.4990   70.0250  -20.1450 N.3    87  LYS87      -0.1310
    172  N         10.3200   66.6370  -17.0460 N.am   88  THR88      -0.1936
    173  CA        10.2440   66.0940  -15.7050 C.3    88  THR88       0.2028
    174  C         10.5370   67.0660  -14.6430 C.2    88  THR88       0.2643
    175  O         10.8550   68.2230  -14.9550 O.2    88  THR88      -0.2714
    176  CB        11.3380   65.0360  -15.5900 C.3    88  THR88       0.1808
    177  OG1       11.1000   64.2420  -14.4080 O.3    88  THR88      -0.2208
    178  CG2       12.7430   65.7070  -15.4560 C.3    88  THR88       0.0379
    179  N         10.5300   66.5820  -13.3780 N.am   89  GLY89      -0.1940
    180  CA        10.7760   67.4790  -12.2660 C.3    89  GLY89       0.1998
    181  C         12.2060   67.4270  -11.6950 C.2    89  GLY89       0.2480
    182  O         13.0480   66.6900  -12.2400 O.2    89  GLY89      -0.2729
    183  N         12.4780   68.2000  -10.6330 N.am   90  PRO90      -0.2726
    184  CA        13.8010   68.2310  -10.0010 C.3    90  PRO90       0.1402
    185  C         14.2110   66.8420   -9.6860 C.2    90  PRO90       0.2269
    186  O         13.3030   66.0950   -9.3640 O.2    90  PRO90      -0.2865
    187  CB        13.5480   68.9880   -8.6610 C.3    90  PRO90       0.0296
    188  CG        12.3930   69.9320   -9.0590 C.3    90  PRO90       0.0237
    189  CD        11.5280   69.1250   -9.9780 C.3    90  PRO90       0.0939
    190  N         15.7420   73.1420   -5.8670 N.3    97  SER97      -0.1202
    191  CA        14.7070   73.3310   -6.9020 C.3    97  SER97       0.2020
    192  C         13.3020   72.9220   -6.4300 C.2    97  SER97       0.2619
    193  O         12.2920   73.3690   -6.9980 O.2    97  SER97      -0.2717
    194  CB        15.0560   72.6670   -8.2410 C.3    97  SER97       0.2103
    195  OG        16.2440   73.2710   -8.6860 O.3    97  SER97      -0.2182
    196  N         13.2460   72.0290   -5.4560 N.am   98  CYS98      -0.1969
    197  CA        11.9760   71.7450   -4.8330 C.3    98  CYS98       0.1712
    198  C         11.8190   72.6940   -3.6200 C.2    98  CYS98       0.2296
    199  O         10.8020   73.3970   -3.4890 O.2    98  CYS98      -0.2864
    200  CB        11.9180   70.2970   -4.3500 C.3    98  CYS98       0.0983
    201  SG        11.5010   69.1020   -5.6020 S.3    98  CYS98      -0.0798
@<TRIPOS>BOND
     1   169   168    1
     2   169   170    1
     3   163   164    1
     4   171   170    1
     5   167   168    2
     6   167   164    1
     7   164   165    1
     8    74    75    1
     9    75    76    1
    10    75    78    1
    11    76    77    2
    12   158   157    2
    13   165   166    2
    14   165   172   am
    15    78    79    1
    16    79    80    1
    17    65    64    2
    18   172   173    1
    19   162   160    1
    20   157   156    1
    21    63    64    1
    22    63    62    1
    23    63    66    1
    24    64    67   am
    25    82    83    1
    26   156   159    1
    27   156   155    1
    28    70    69    2
    29    69    68    1
    30   159   160    1
    31    80    81    1
    32   160   161    1
    33   173   176    1
    34   173   174    1
    35   176   178    1
    36   176   177    1
    37    67    68    1
    38    68    71    1
    39    83    84    1
    40    83    86    1
    41    85    84    2
    42   175   174    2
    43   174   179   am
    44    46    45    2
    45    90    89    1
    46    50    49    2
    47    48    49    1
    48    48    47    1
    49    86    87    1
    50    87    88    1
    51    44    45    1
    52    44    47    1
    53    44    43    1
    54    49    51   am
    55    45    52   am
    56    88    89    1
    57    71    73    1
    58    71    72    1
    59   179   180    1
    60    41    40    1
    61   148   147    2
    62    55    54    2
    63    54    53    1
    64   142   141    2
    65    52    53    1
    66   180   181    1
    67   182   181    2
    68   147   146    1
    69    53    56    1
    70   144   143    1
    71    40    42    1
    72    40    39    2
    73   181   183   am
    74   146   145    1
    75   146   149    1
    76   141   145   am
    77   141   140    1
    78    38    39    1
    79    38    37    1
    80   149   150    1
    81    56    57    1
    82   183   184    1
    83   183   189    1
    84   140   143    1
    85   140   139    1
    86   152   150   ar
    87   152   154   ar
    88    59    57   ar
    89    59    61   ar
    90    57    58   ar
    91   150   151   ar
    92    95    92    1
    93    36    37    1
    94    36    33    1
    95    35    34    2
    96    61    60   ar
    97   184   185    1
    98   184   187    1
    99   189   188    1
   100    58    60   ar
   101   154   153   ar
   102   185   186    2
   103   151   153   ar
   104    34    33    1
   105   188   187    1
   106    33    32    1
   107    92    91    1
   108    92    93    1
   109   195   194    1
   110   194   191    1
   111    32    23   am
   112   136   135    2
   113    93    94    2
   114    93    96   am
   115   101   100    1
   116    31    30   ar
   117    31    29   ar
   118   193   192    2
   119    30    28   ar
   120    96    97    1
   121   191   192    1
   122   191   190    1
   123    23    24    2
   124    23    22    1
   125    29    27   ar
   126   192   196   am
   127   135   134    1
   128    28    26   ar
   129   128   127    2
   130    22    21    1
   131    22    25    1
   132   100    97    1
   133    27    26   ar
   134    26    25    1
   135    97    98    1
   136   201   200    1
   137   134   137    1
   138   134   133    1
   139   196   197    1
   140    19    18    2
   141   127   133   am
   142   127   126    1
   143    21    18   am
   144   197   200    1
   145   197   198    1
   146    18    17    1
   147    20    17    1
   148   137   138    1
   149    98    99    2
   150   110   112   ar
   151   110   108   ar
   152   126   129    1
   153   126   125    1
   154   112   111   ar
   155    17    16    1
   156   129   130    1
   157   198   199    2
   158   131   130    2
   159   108   107   ar
   160    14    13    1
   161   130   132   am
   162    16    11   am
   163   111   109   ar
   164   116   115    2
   165   107   109   ar
   166   107   106    1
   167    11    12    2
   168    11    10    1
   169     8     6    1
   170    13    10    1
   171    13    15    1
   172    10     9    1
   173   106   103    1
   174   115   114    1
   175     6     5    1
   176   103   104    1
   177   103   102    1
   178   114   117    1
   179   114   113    1
   180   104   105    1
   181   120   122   ar
   182   120   118   ar
   183     1     2    1
   184     5     2    1
   185     5     7    1
   186   117   118    1
   187   122   123   ar
   188   118   119   ar
   189     2     3    1
   190   123   124    1
   191   123   121   ar
   192     4     3    2
   193   119   121   ar
