@<TRIPOS>MOLECULE
tmp/1gwsA09.pdb
 201 193 0 0 0
SMALL
GASTEIGER

@<TRIPOS>ATOM
      1  N        -18.0780   79.6380   -4.1670 N.3   113  GLY113     -0.1210
      2  CA       -19.2760   79.3800   -3.4060 C.3   113  GLY113      0.1956
      3  C        -20.4650   79.2400   -4.3080 C.2   113  GLY113      0.2611
      4  O        -20.3380   79.4830   -5.5120 O.2   113  GLY113     -0.2717
      5  N        -21.5780   78.7740   -3.7420 N.am  114  PHE114     -0.1976
      6  CA       -22.8090   78.6410   -4.4780 C.3   114  PHE114      0.1639
      7  C        -23.6900   79.8960   -4.3280 C.2   114  PHE114      0.2290
      8  O        -24.1730   80.2290   -3.2370 O.2   114  PHE114     -0.2864
      9  CB       -23.6170   77.4440   -3.9870 C.3   114  PHE114      0.0560
     10  CG       -23.2510   76.1220   -4.5990 C.ar  114  PHE114     -0.0200
     11  CD1      -22.0140   75.9070   -5.2380 C.ar  114  PHE114     -0.0042
     12  CD2      -24.1500   75.0650   -4.5240 C.ar  114  PHE114     -0.0042
     13  CE1      -21.7150   74.6440   -5.8390 C.ar  114  PHE114     -0.0003
     14  CE2      -23.8400   73.8050   -5.0880 C.ar  114  PHE114     -0.0003
     15  CZ       -22.6130   73.6070   -5.7410 C.ar  114  PHE114     -0.0000
     16  N        -26.6540   76.8700   -7.4280 N.3   119  HIS119     -0.1241
     17  CA       -27.2180   75.8180   -6.5650 C.3   119  HIS119      0.1621
     18  C        -28.3770   75.1820   -7.3680 C.2   119  HIS119      0.2264
     19  O        -28.5470   73.9850   -7.3810 O.2   119  HIS119     -0.2867
     20  CB       -27.6500   76.3780   -5.1880 C.3   119  HIS119      0.0745
     21  CG       -28.1240   75.3360   -4.2220 C.ar  119  HIS119      0.0817
     22  ND1      -29.2880   74.6280   -4.4050 N.ar  119  HIS119     -0.2268
     23  CD2      -27.5750   74.8660   -3.0650 C.ar  119  HIS119      0.1154
     24  CE1      -29.4460   73.7790   -3.4020 C.ar  119  HIS119      0.1986
     25  NE2      -28.4210   73.9030   -2.5700 N.ar  119  HIS119     -0.2212
     26  N        -27.2730   72.5330   -9.8210 N.3   122  HIS122     -0.1226
     27  CA       -27.1310   71.1740   -9.2540 C.3   122  HIS122      0.1752
     28  C        -28.4580   70.4280   -8.9810 C.2   122  HIS122      0.2595
     29  O        -28.6100   69.2190   -9.2800 O.2   122  HIS122     -0.2718
     30  CB       -26.2640   71.1730   -8.0080 C.3   122  HIS122      0.0759
     31  CG       -24.8160   71.4220   -8.2780 C.ar  122  HIS122      0.0818
     32  ND1      -24.3090   72.6880   -8.4780 N.ar  122  HIS122     -0.2268
     33  CD2      -23.7600   70.5710   -8.3360 C.ar  122  HIS122      0.1154
     34  CE1      -23.0050   72.5970   -8.6770 C.ar  122  HIS122      0.1986
     35  NE2      -22.6410   71.3280   -8.5630 N.ar  122  HIS122     -0.2212
     36  N        -29.4100   71.1170   -8.3690 N.am  123  VAL123     -0.1980
     37  CA       -30.7410   70.5380   -8.1190 C.3   123  VAL123      0.1595
     38  C        -31.4120   69.9930   -9.3960 C.2   123  VAL123      0.2287
     39  O        -31.9190   68.8510   -9.4410 O.2   123  VAL123     -0.2864
     40  CB       -31.6850   71.6080   -7.5730 C.3   123  VAL123      0.0276
     41  CG1      -33.1410   71.0790   -7.5290 C.3   123  VAL123      0.0022
     42  CG2      -31.1950   72.0560   -6.2140 C.3   123  VAL123      0.0022
     43  N        -27.7980   63.9250  -11.0350 N.3   128  ILE128     -0.1245
     44  CA       -27.8070   63.8160   -9.5800 C.3   128  ILE128      0.1561
     45  C        -29.1580   63.2810   -9.1850 C.2   128  ILE128      0.2260
     46  O        -30.1480   64.0230   -9.0840 O.2   128  ILE128     -0.2867
     47  CB       -27.5400   65.1470   -8.9350 C.3   128  ILE128      0.0252
     48  CG1      -26.3170   65.7830   -9.6060 C.3   128  ILE128      0.0019
     49  CG2      -27.5190   64.9970   -7.3740 C.3   128  ILE128      0.0019
     50  CD1      -26.1160   67.2780   -9.3200 C.3   128  ILE128      0.0001
     51  N        -37.0460   64.3390   -4.8230 N.3   136  LYS136     -0.1231
     52  CA       -35.9760   65.2150   -4.3400 C.3   136  LYS136      0.1693
     53  C        -34.5610   64.6730   -4.3950 C.2   136  LYS136      0.2592
     54  O        -34.3710   63.5230   -3.9800 O.2   136  LYS136     -0.2718
     55  CB       -36.2810   65.7140   -2.9070 C.3   136  LYS136      0.0285
     56  CG       -37.1960   66.9660   -2.7990 C.3   136  LYS136      0.0035
     57  CD       -37.8110   67.0540   -1.3840 C.3   136  LYS136      0.0206
     58  CE       -38.5100   68.3530   -1.1020 C.3   136  LYS136      0.1093
     59  NZ       -38.7370   68.5280    0.3880 N.3   136  LYS136     -0.1314
     60  N        -33.5910   65.5040   -4.8570 N.am  137  ASN137     -0.1960
     61  CA       -32.1380   65.1620   -4.8090 C.3   137  ASN137      0.1819
     62  C        -31.2910   65.7900   -3.6700 C.2   137  ASN137      0.2621
     63  O        -30.0960   65.4940   -3.5040 O.2   137  ASN137     -0.2715
     64  CB       -31.4500   65.1420   -6.1820 C.3   137  ASN137      0.1195
     65  CG       -31.1850   66.5280   -6.7700 C.2   137  ASN137      0.2630
     66  OD1      -30.7000   66.6690   -7.9310 O.2   137  ASN137     -0.2716
     67  ND2      -31.3980   67.5200   -5.9920 N.am  137  ASN137     -0.0877
     68  N        -31.9450   66.5430   -2.7910 N.am  138  CYS138     -0.1968
     69  CA       -31.2590   67.0730   -1.5620 C.3   138  CYS138      0.1712
     70  C        -30.3820   66.1000   -0.7980 C.2   138  CYS138      0.2296
     71  O        -29.2810   66.4710   -0.3520 O.2   138  CYS138     -0.2864
     72  CB       -32.2230   67.6960   -0.5510 C.3   138  CYS138      0.0983
     73  SG       -33.6110   68.5700   -1.2920 S.3   138  CYS138     -0.0798
     74  N        -26.7080   65.4130   -1.3460 N.3   141  CYS141     -0.1221
     75  CA       -25.6590   66.2940   -0.8210 C.3   141  CYS141      0.1808
     76  C        -25.7150   66.6670    0.6510 C.2   141  CYS141      0.2601
     77  O        -24.7240   66.8540    1.2560 O.2   141  CYS141     -0.2717
     78  CB       -25.5470   67.5460   -1.6740 C.3   141  CYS141      0.0970
     79  SG       -25.2230   67.1000   -3.4080 S.3   141  CYS141     -0.0800
     80  N        -26.8890   66.7900    1.2020 N.am  142  HIS142     -0.1975
     81  CA       -27.0420   67.4110    2.5010 C.3   142  HIS142      0.1656
     82  C        -27.2450   66.3450    3.5510 C.2   142  HIS142      0.2291
     83  O        -27.8950   65.3210    3.2960 O.2   142  HIS142     -0.2864
     84  CB       -28.2350   68.3950    2.4720 C.3   142  HIS142      0.0771
     85  CG       -27.9910   69.6570    1.6790 C.ar  142  HIS142      0.0820
     86  ND1      -27.1780   70.6880    2.1170 N.ar  142  HIS142     -0.2267
     87  CD2      -28.5290   70.0960    0.5130 C.ar  142  HIS142      0.1154
     88  CE1      -27.2120   71.6840    1.2560 C.ar  142  HIS142      0.1986
     89  NE2      -28.0180   71.3490    0.2610 N.ar  142  HIS142     -0.2212
     90  N        -31.4470   71.1270    5.4840 N.3   159  GLU159     -0.1231
     91  CA       -30.3190   71.4570    4.6300 C.3   159  GLU159      0.1699
     92  C        -29.7000   72.8190    5.0260 C.2   159  GLU159      0.2592
     93  O        -30.3840   73.7490    5.4200 O.2   159  GLU159     -0.2718
     94  CB       -30.7790   71.5100    3.1560 C.3   159  GLU159      0.0402
     95  CG       -31.3730   70.2010    2.6550 C.3   159  GLU159      0.1161
     96  CD       -32.8320   69.9980    3.1140 C.2   159  GLU159      0.3649
     97  OE1      -33.3910   70.9180    3.7750 O.co2 159  GLU159     -0.2457
     98  OE2      -33.4300   68.9360    2.7650 O.co2 159  GLU159     -0.2457
     99  N        -28.3940   72.9720    4.8690 N.am  160  ASP160     -0.1960
    100  CA       -27.8280   74.2840    5.1700 C.3   160  ASP160      0.1840
    101  C        -26.5190   74.3410    4.4180 C.2   160  ASP160      0.2623
    102  O        -26.0680   73.3120    3.8810 O.2   160  ASP160     -0.2715
    103  CB       -27.6260   74.4040    6.7030 C.3   160  ASP160      0.1450
    104  CG       -27.5440   75.8670    7.1850 C.2   160  ASP160      0.3671
    105  OD1      -27.2680   76.7820    6.3360 O.co2 160  ASP160     -0.2456
    106  OD2      -27.7510   76.1820    8.4000 O.co2 160  ASP160     -0.2456
    107  N        -25.8860   75.5140    4.3740 N.am  161  SER161     -0.1936
    108  CA       -24.5540   75.5570    3.7970 C.3   161  SER161      0.2055
    109  C        -23.5340   74.7300    4.6200 C.2   161  SER161      0.2643
    110  O        -23.6690   74.6310    5.8440 O.2   161  SER161     -0.2714
    111  CB       -24.0440   76.9620    3.5590 C.3   161  SER161      0.2130
    112  OG       -22.6050   76.9170    3.4280 O.3   161  SER161     -0.2179
    113  N        -22.4790   74.2270    3.9390 N.am  162  CYS162     -0.1953
    114  CA       -21.5250   73.2970    4.5310 C.3   162  CYS162      0.1843
    115  C        -20.7780   74.0760    5.5090 C.2   162  CYS162      0.2625
    116  O        -20.3450   73.5470    6.5150 O.2   162  CYS162     -0.2714
    117  CB       -20.5850   72.7030    3.4900 C.3   162  CYS162      0.0997
    118  SG       -21.3250   72.3520    1.8190 S.3   162  CYS162     -0.0797
    119  N        -20.6780   75.3760    5.2430 N.am  163  ARG163     -0.1977
    120  CA       -20.0540   76.2860    6.1740 C.3   163  ARG163      0.1597
    121  C        -20.7630   76.2710    7.5070 C.2   163  ARG163      0.2287
    122  O        -20.1390   76.6830    8.5000 O.2   163  ARG163     -0.2864
    123  CB       -20.1170   77.7150    5.7160 C.3   163  ARG163      0.0334
    124  CG       -19.8850   77.9370    4.2240 C.3   163  ARG163      0.0492
    125  CD       -20.0620   79.3670    3.8070 C.3   163  ARG163      0.2205
    126  NE       -18.9630   79.7130    2.9230 N.pl3 163  ARG163     -0.0865
    127  CZ       -18.8980   79.2550    1.7070 C.cat 163  ARG163      0.5346
    128  NH1      -19.8700   78.4660    1.2520 N.pl3 163  ARG163      0.1354
    129  NH2      -17.8950   79.5650    0.9510 N.pl3 163  ARG163      0.1354
    130  N        -17.4820   67.4030   -3.4380 N.3   185  CYS185     -0.1235
    131  CA       -17.7130   68.0050   -4.7030 C.3   185  CYS185      0.1677
    132  C        -16.8620   67.2660   -5.8060 C.2   185  CYS185      0.2270
    133  O        -17.4080   66.6730   -6.7380 O.2   185  CYS185     -0.2867
    134  CB       -17.3550   69.4760   -4.6300 C.3   185  CYS185      0.0956
    135  SG       -17.8770   70.3650   -3.1510 S.3   185  CYS185     -0.0801
    136  N        -17.8700   63.6590   -6.6800 N.3   188  CYS188     -0.1235
    137  CA       -19.0250   63.4490   -7.5170 C.3   188  CYS188      0.1677
    138  C        -18.7160   63.9650   -8.9200 C.2   188  CYS188      0.2270
    139  O        -19.1600   63.3960   -9.8780 O.2   188  CYS188     -0.2867
    140  CB       -20.2510   64.1790   -6.9790 C.3   188  CYS188      0.0956
    141  SG       -21.6640   64.2730   -8.1120 S.3   188  CYS188     -0.0801
    142  N        -35.8650   78.0460   -3.7460 N.3   225  LEU225     -0.1231
    143  CA       -35.2440   76.9030   -3.0800 C.3   225  LEU225      0.1693
    144  C        -36.0410   76.6570   -1.8050 C.2   225  LEU225      0.2592
    145  O        -36.1180   77.4920   -0.9370 O.2   225  LEU225     -0.2718
    146  CB       -33.8160   77.2610   -2.7090 C.3   225  LEU225      0.0284
    147  CG       -33.1330   76.1650   -1.9050 C.3   225  LEU225      0.0019
    148  CD1      -33.2650   74.7960   -2.5810 C.3   225  LEU225      0.0001
    149  CD2      -31.7140   76.5890   -1.7670 C.3   225  LEU225      0.0001
    150  N        -36.6330   75.5070   -1.6280 N.am  226  ASP226     -0.1960
    151  CA       -37.6180   75.5360   -0.5950 C.3   226  ASP226      0.1840
    152  C        -37.5280   74.3830    0.3730 C.2   226  ASP226      0.2621
    153  O        -37.7550   73.2790   -0.0250 O.2   226  ASP226     -0.2715
    154  CB       -38.9870   75.7130   -1.3210 C.3   226  ASP226      0.1450
    155  CG       -40.1760   75.3100   -0.4680 C.2   226  ASP226      0.3671
    156  OD1      -41.3720   75.4270   -0.9380 O.co2 226  ASP226     -0.2456
    157  OD2      -40.0030   74.8010    0.6530 O.co2 226  ASP226     -0.2456
    158  N        -37.0720   74.6530    1.5950 N.am  227  ARG227     -0.1977
    159  CA       -37.0090   73.6460    2.6270 C.3   227  ARG227      0.1597
    160  C        -38.1930   74.1140    3.3880 C.2   227  ARG227      0.2287
    161  O        -39.2220   74.3610    2.8100 O.2   227  ARG227     -0.2864
    162  CB       -35.8070   73.7350    3.5430 C.3   227  ARG227      0.0334
    163  CG       -34.7410   74.7340    3.3370 C.3   227  ARG227      0.0492
    164  CD       -33.7240   74.5800    4.4820 C.3   227  ARG227      0.2205
    165  NE       -34.3820   74.6720    5.7840 N.pl3 227  ARG227     -0.0865
    166  CZ       -33.7880   74.6670    6.9890 C.cat 227  ARG227      0.5346
    167  NH1      -32.4710   74.4840    7.1020 N.pl3 227  ARG227      0.1354
    168  NH2      -34.5320   74.8410    8.0980 N.pl3 227  ARG227      0.1354
    169  N        -28.7170   84.3350   -2.1340 N.3   267  ASP267     -0.1225
    170  CA       -28.6160   83.0570   -1.5100 C.3   267  ASP267      0.1805
    171  C        -29.2140   83.1550   -0.1450 C.2   267  ASP267      0.2598
    172  O        -29.6830   84.1730    0.2310 O.2   267  ASP267     -0.2718
    173  CB       -27.1930   82.7030   -1.3260 C.3   267  ASP267      0.1424
    174  CG       -26.3920   83.7880   -0.5650 C.2   267  ASP267      0.3668
    175  OD1      -26.9280   84.6620    0.1500 O.co2 267  ASP267     -0.2456
    176  OD2      -25.1590   83.8660   -0.6440 O.co2 267  ASP267     -0.2456
    177  N        -29.1450   82.1180    0.6490 N.am  268  CYS268     -0.1956
    178  CA       -29.6450   82.2590    1.9850 C.3   268  CYS268      0.1843
    179  C        -28.6740   82.8680    2.9750 C.2   268  CYS268      0.2625
    180  O        -29.0760   83.6260    3.8560 O.2   268  CYS268     -0.2714
    181  CB       -30.0970   80.8980    2.5520 C.3   268  CYS268      0.0997
    182  SG       -31.2570   80.0510    1.5070 S.3   268  CYS268     -0.0797
    183  N        -27.4200   82.4840    2.8280 N.am  269  ARG269     -0.1977
    184  CA       -26.3380   82.7420    3.7880 C.3   269  ARG269      0.1597
    185  C        -26.0490   84.2420    4.0460 C.2   269  ARG269      0.2287
    186  O        -25.5720   84.5710    5.0870 O.2   269  ARG269     -0.2864
    187  CB       -25.1100   82.1630    3.1090 C.3   269  ARG269      0.0334
    188  CG       -24.1210   81.3120    3.7720 C.3   269  ARG269      0.0492
    189  CD       -22.9790   80.9120    2.6670 C.3   269  ARG269      0.2205
    190  NE       -23.6350   80.5290    1.4050 N.pl3 269  ARG269     -0.0865
    191  CZ       -23.2290   80.7650    0.1410 C.cat 269  ARG269      0.5346
    192  NH1      -22.0960   81.3760   -0.1740 N.pl3 269  ARG269      0.1354
    193  NH2      -24.0000   80.3680   -0.8300 N.pl3 269  ARG269      0.1354
    194  N        -28.8890   78.6290    9.1140 N.3   276  ILE276     -0.1245
    195  CA       -30.2950   78.9400    8.9960 C.3   276  ILE276      0.1561
    196  C        -30.9230   78.6990   10.3820 C.2   276  ILE276      0.2260
    197  O        -30.6840   77.6360   10.9890 O.2   276  ILE276     -0.2867
    198  CB       -30.8910   78.0120    7.9990 C.3   276  ILE276      0.0252
    199  CG1      -30.1270   78.1340    6.6880 C.3   276  ILE276      0.0019
    200  CG2      -32.3260   78.2630    7.8900 C.3   276  ILE276      0.0019
    201  CD1      -30.9310   78.0620    5.3880 C.3   276  ILE276      0.0001
@<TRIPOS>BOND
     1    43    44    1
     2   139   138    2
     3    26    27    1
     4    48    50    1
     5    48    47    1
     6    44    45    1
     7    44    47    1
     8    39    38    2
     9    38    37    1
    10    29    28    2
    11    27    28    1
    12    27    30    1
    13    45    46    2
    14    28    36   am
    15    47    49    1
    16   138   137    1
    17    34    35   ar
    18    34    32   ar
    19    35    33   ar
    20    32    31   ar
    21    36    37    1
    22    33    31   ar
    23    31    30    1
    24    37    40    1
    25   141   140    1
    26    66    65    2
    27    40    41    1
    28    40    42    1
    29   137   140    1
    30   137   136    1
    31    16    17    1
    32    19    18    2
    33    18    17    1
    34    65    64    1
    35    65    67   am
    36   133   132    2
    37    17    20    1
    38    64    61    1
    39    13    15   ar
    40    13    11   ar
    41   132   131    1
    42    15    14   ar
    43     4     3    2
    44    11    10   ar
    45    20    21    1
    46    14    12   ar
    47    60    61    1
    48    60    53   am
    49    51    52    1
    50    61    62    1
    51   131   134    1
    52   131   130    1
    53   134   135    1
    54    10    12   ar
    55    10     9    1
    56     6     7    1
    57     6     9    1
    58     6     5    1
    59    22    21   ar
    60    22    24   ar
    61    53    52    1
    62    53    54    2
    63    52    55    1
    64     7     8    2
    65     3     5   am
    66     3     2    1
    67    21    23   ar
    68     1     2    1
    69   142   143    1
    70    62    63    2
    71    62    68   am
    72    79    78    1
    73    24    25   ar
    74   143   146    1
    75   143   144    1
    76    23    25   ar
    77    55    56    1
    78    56    57    1
    79    68    69    1
    80   146   147    1
    81   148   147    1
    82   169   170    1
    83   147   149    1
    84   144   150   am
    85   144   145    2
    86    78    75    1
    87   150   151    1
    88    69    70    1
    89    69    72    1
    90   170   173    1
    91   170   171    1
    92    57    58    1
    93    74    75    1
    94   173   174    1
    95   154   151    1
    96   154   155    1
    97    73    72    1
    98    58    59    1
    99   156   155   ar
   100   193   191    1
   101    75    76    1
   102    70    71    2
   103   176   174   ar
   104   151   152    1
   105   174   175   ar
   106   155   157   ar
   107   192   191    1
   108   171   172    2
   109   171   177   am
   110   153   152    2
   111   191   190    2
   112    89    87   ar
   113    89    88   ar
   114   152   158   am
   115    87    85   ar
   116   177   178    1
   117    76    80   am
   118    76    77    2
   119   129   127    1
   120    80    81    1
   121   128   127    1
   122    88    86   ar
   123   190   189    1
   124   182   181    1
   125   158   159    1
   126    85    86   ar
   127    85    84    1
   128   127   126    2
   129   118   117    1
   130   178   181    1
   131   178   179    1
   132    84    81    1
   133    81    82    1
   134   159   160    1
   135   159   162    1
   136    95    96    1
   137    95    94    1
   138   189   188    1
   139    98    96   ar
   140   161   160    2
   141   183   179   am
   142   183   184    1
   143   126   125    1
   144   179   180    2
   145   187   188    1
   146   187   184    1
   147    96    97   ar
   148    94    91    1
   149    83    82    2
   150   163   162    1
   151   163   164    1
   152   112   111    1
   153   117   114    1
   154   111   108    1
   155   184   185    1
   156   108   107    1
   157   108   109    1
   158   125   124    1
   159   102   101    2
   160   113   114    1
   161   113   109   am
   162   185   186    2
   163   124   123    1
   164   107   101   am
   165   101   100    1
   166   164   165    1
   167   114   115    1
   168   109   110    2
   169    91    92    1
   170    91    90    1
   171    99    92   am
   172    99   100    1
   173    92    93    2
   174   100   103    1
   175   119   115   am
   176   119   120    1
   177   201   199    1
   178   115   116    2
   179   123   120    1
   180   165   166    2
   181   120   121    1
   182   105   104   ar
   183   199   198    1
   184   103   104    1
   185   166   167    1
   186   166   168    1
   187   104   106   ar
   188   121   122    2
   189   200   198    1
   190   198   195    1
   191   195   194    1
   192   195   196    1
   193   196   197    2
