@<TRIPOS>MOLECULE
tmp/1gwsA01.pdb
 181 176 0 0 0
SMALL
GASTEIGER

@<TRIPOS>ATOM
      1  N        -40.4790   88.6400   13.9300 N.3   235  ILE235     -0.1231
      2  CA       -39.2220   88.8300   14.6430 C.3   235  ILE235      0.1692
      3  C        -39.4630   89.5740   15.9630 C.2   235  ILE235      0.2592
      4  O        -40.1650   90.5740   16.0070 O.2   235  ILE235     -0.2718
      5  CB       -38.2780   89.6090   13.7390 C.3   235  ILE235      0.0266
      6  CG1      -38.3950   89.0830   12.2820 C.3   235  ILE235      0.0019
      7  CG2      -36.8590   89.5670   14.3250 C.3   235  ILE235      0.0020
      8  CD1      -37.4230   89.7960   11.2450 C.3   235  ILE235      0.0001
      9  N        -38.7850   89.1420   17.0100 N.am  236  LEU236     -0.1966
     10  CA       -39.1110   89.5780   18.3530 C.3   236  LEU236      0.1713
     11  C        -37.9330   89.9720   19.2050 C.2   236  LEU236      0.2458
     12  O        -36.8400   89.4150   19.0330 O.2   236  LEU236     -0.2730
     13  CB       -39.7860   88.4010   19.0040 C.3   236  LEU236      0.0310
     14  CG       -41.0990   88.0190   18.3050 C.3   236  LEU236      0.0022
     15  CD1      -41.4390   86.5650   18.5840 C.3   236  LEU236      0.0001
     16  CD2      -42.2040   89.0080   18.7410 C.3   236  LEU236      0.0001
     17  N        -38.1730   90.8580   20.1870 N.am  237  PRO237     -0.2727
     18  CA       -37.1110   91.3370   21.1000 C.3   237  PRO237      0.1402
     19  C        -36.8130   90.2130   22.0760 C.2   237  PRO237      0.2269
     20  O        -37.4900   90.1280   23.0730 O.2   237  PRO237     -0.2865
     21  CB       -37.7600   92.5090   21.8860 C.3   237  PRO237      0.0296
     22  CG       -39.3220   92.3950   21.6520 C.3   237  PRO237      0.0237
     23  CD       -39.5180   91.3960   20.5100 C.3   237  PRO237      0.0939
     24  N        -39.9190   94.3520   25.5380 N.3   249  GLY249     -0.1210
     25  CA       -39.1040   95.0490   24.5390 C.3   249  GLY249      0.1956
     26  C        -39.2690   96.5490   24.7300 C.2   249  GLY249      0.2613
     27  O        -39.4440   96.9810   25.8780 O.2   249  GLY249     -0.2717
     28  N        -39.1750   97.3570   23.6730 N.am  250  THR250     -0.1938
     29  CA       -39.5120   98.7720   23.8280 C.3   250  THR250      0.2028
     30  C        -40.2710   99.2780   22.6450 C.2   250  THR250      0.2642
     31  O        -40.9490  100.3630   22.6920 O.2   250  THR250     -0.2714
     32  CB       -38.2910   99.6680   24.0550 C.3   250  THR250      0.1808
     33  OG1      -37.8110  100.1290   22.7770 O.3   250  THR250     -0.2208
     34  CG2      -37.1260   98.8710   24.6950 C.3   250  THR250      0.0379
     35  N        -40.1420   98.5070   21.5790 N.am  251  MET251     -0.1962
     36  CA       -40.7970   98.7820   20.3270 C.3   251  MET251      0.1736
     37  C        -41.8590   97.7100   20.0900 C.2   251  MET251      0.2616
     38  O        -41.8450   96.6650   20.7160 O.2   251  MET251     -0.2715
     39  CB       -39.7480   98.7280   19.2140 C.3   251  MET251      0.0427
     40  CG       -38.5770   99.6540   19.4080 C.3   251  MET251      0.0599
     41  SD       -38.9210  101.4720   19.3700 S.3   251  MET251     -0.1393
     42  CE       -39.0680  101.6800   17.6350 C.3   251  MET251      0.0692
     43  N        -42.7850   97.9700   19.1800 N.am  252  LYS252     -0.1964
     44  CA       -43.6340   96.9170   18.6480 C.3   252  LYS252      0.1713
     45  C        -42.7750   95.9180   17.8240 C.2   252  LYS252      0.2458
     46  O        -41.6880   96.2690   17.3680 O.2   252  LYS252     -0.2730
     47  CB       -44.7340   97.5230   17.7700 C.3   252  LYS252      0.0311
     48  CG       -45.6180   98.5970   18.4750 C.3   252  LYS252      0.0038
     49  CD       -46.6630   99.1180   17.5380 C.3   252  LYS252      0.0206
     50  CE       -46.8190  100.6110   17.6600 C.3   252  LYS252      0.1093
     51  NZ       -47.3080  101.0820   19.0700 N.3   252  LYS252     -0.1314
     52  N        -43.2510   94.6870   17.6310 N.am  253  PRO253     -0.2716
     53  CA       -42.4550   93.6200   16.9850 C.3   253  PRO253      0.1536
     54  C        -42.4180   93.7710   15.4340 C.2   253  PRO253      0.2598
     55  O        -43.0710   94.6450   14.9320 O.2   253  PRO253     -0.2715
     56  CB       -43.2270   92.3500   17.3900 C.3   253  PRO253      0.0310
     57  CG       -44.7230   92.8380   17.1940 C.3   253  PRO253      0.0237
     58  CD       -44.5980   94.1800   17.9950 C.3   253  PRO253      0.0939
     59  N        -41.6680   92.9830   14.7020 N.am  254  VAL254     -0.1978
     60  CA       -41.6600   93.2360   13.2770 C.3   254  VAL254      0.1596
     61  C        -41.9440   92.0940   12.3730 C.2   254  VAL254      0.2287
     62  O        -41.2720   91.1280   12.4360 O.2   254  VAL254     -0.2864
     63  CB       -40.4190   94.0830   12.7190 C.3   254  VAL254      0.0276
     64  CG1      -39.4090   94.5370   13.7830 C.3   254  VAL254      0.0022
     65  CG2      -39.8960   93.6000   11.2900 C.3   254  VAL254      0.0022
     66  N        -31.6810   90.7840   22.9860 N.3   285  VAL285     -0.1245
     67  CA       -31.6300   92.1840   23.3160 C.3   285  VAL285      0.1561
     68  C        -30.2640   92.6710   23.7920 C.2   285  VAL285      0.2260
     69  O        -29.7230   93.6410   23.2180 O.2   285  VAL285     -0.2867
     70  CB       -32.6510   92.5590   24.3390 C.3   285  VAL285      0.0252
     71  CG1      -32.5520   94.0560   24.6210 C.3   285  VAL285      0.0019
     72  CG2      -34.0130   92.2630   23.7240 C.3   285  VAL285      0.0019
     73  N        -29.2850   92.4110   19.3740 N.3   296  LEU296     -0.1231
     74  CA       -30.3270   92.3990   18.3910 C.3   296  LEU296      0.1693
     75  C        -30.4520   93.7920   17.7830 C.2   296  LEU296      0.2591
     76  O        -30.5890   93.9390   16.5960 O.2   296  LEU296     -0.2718
     77  CB       -31.6670   91.9510   19.0150 C.3   296  LEU296      0.0284
     78  CG       -32.8710   92.0290   18.0860 C.3   296  LEU296      0.0019
     79  CD1      -32.8750   90.8470   17.2440 C.3   296  LEU296      0.0001
     80  CD2      -34.0790   91.9530   18.9900 C.3   296  LEU296      0.0001
     81  N        -30.3200   94.8340   18.5550 N.am  297  GLU297     -0.1979
     82  CA       -30.4250   96.0610   17.8390 C.3   297  GLU297      0.1602
     83  C        -29.2990   96.2310   16.7610 C.2   297  GLU297      0.2287
     84  O        -29.5750   96.6880   15.6390 O.2   297  GLU297     -0.2864
     85  CB       -30.7500   97.2450   18.7470 C.3   297  GLU297      0.0415
     86  CG       -30.2530   97.1020   20.2040 C.3   297  GLU297      0.1163
     87  CD       -31.1970   96.4250   21.2770 C.2   297  GLU297      0.3649
     88  OE1      -31.9080   97.1890   22.0740 O.co2 297  GLU297     -0.2457
     89  OE2      -31.1240   95.1540   21.3680 O.co2 297  GLU297     -0.2457
     90  N        -30.0510   94.1920   13.5680 N.3   300  MET300     -0.1230
     91  CA       -31.1690   94.5590   12.6970 C.3   300  MET300      0.1702
     92  C        -31.0600   95.9850   12.0810 C.2   300  MET300      0.2592
     93  O        -31.6820   96.2900   11.0290 O.2   300  MET300     -0.2718
     94  CB       -32.5070   94.3510   13.4580 C.3   300  MET300      0.0401
     95  CG       -32.7240   92.9070   14.0120 C.3   300  MET300      0.0596
     96  SD       -33.0020   91.6970   12.6160 S.3   300  MET300     -0.1393
     97  CE       -32.5190   90.1310   13.5070 C.3   300  MET300      0.0692
     98  N        -30.2450   96.8290   12.7050 N.am  301  HIS301     -0.1976
     99  CA       -30.1790   98.2250   12.3150 C.3   301  HIS301      0.1656
    100  C        -28.7580   98.7200   11.9010 C.2   301  HIS301      0.2291
    101  O        -28.6000   99.8900   11.5360 O.2   301  HIS301     -0.2864
    102  CB       -30.6820   99.1260   13.4790 C.3   301  HIS301      0.0771
    103  CG       -32.0950   98.8430   13.9490 C.ar  301  HIS301      0.0820
    104  ND1      -32.3620   98.1990   15.1450 N.ar  301  HIS301     -0.2267
    105  CD2      -33.3130   99.1730   13.4230 C.ar  301  HIS301      0.1154
    106  CE1      -33.6730   98.1340   15.3320 C.ar  301  HIS301      0.1986
    107  NE2      -34.2710   98.7280   14.3130 N.ar  301  HIS301     -0.2212
    108  N        -31.1910   94.7130    8.2880 N.3   309  CYS309     -0.1221
    109  CA       -32.2690   95.2830    7.4830 C.3   309  CYS309      0.1808
    110  C        -31.8470   96.6950    7.0280 C.2   309  CYS309      0.2601
    111  O        -31.7850   96.9820    5.8200 O.2   309  CYS309     -0.2717
    112  CB       -33.6030   95.3560    8.2190 C.3   309  CYS309      0.0970
    113  SG       -33.9580   94.1340    9.5030 S.3   309  CYS309     -0.0800
    114  N        -31.5360   97.5560    8.0020 N.am  310  VAL310     -0.1979
    115  CA       -31.0920   98.8950    7.6380 C.3   310  VAL310      0.1595
    116  C        -29.8390   98.8790    6.7260 C.2   310  VAL310      0.2287
    117  O        -29.7900   99.6430    5.7590 O.2   310  VAL310     -0.2864
    118  CB       -30.9760   99.8210    8.9080 C.3   310  VAL310      0.0276
    119  CG1      -30.7150  101.2670    8.5310 C.3   310  VAL310      0.0022
    120  CG2      -32.2960   99.8590    9.5940 C.3   310  VAL310      0.0022
    121  N        -30.3280   97.6950    3.2790 N.3   313  HIS313     -0.1241
    122  CA       -31.1620   98.6850    2.5950 C.3   313  HIS313      0.1621
    123  C        -30.2890   99.8520    2.2320 C.2   313  HIS313      0.2264
    124  O        -30.4170  100.4210    1.1580 O.2   313  HIS313     -0.2867
    125  CB       -32.3730   99.0900    3.4160 C.3   313  HIS313      0.0745
    126  CG       -33.4070   98.0120    3.5330 C.ar  313  HIS313      0.0817
    127  ND1      -34.4860   98.1120    4.3740 N.ar  313  HIS313     -0.2268
    128  CD2      -33.5150   96.7980    2.9400 C.ar  313  HIS313      0.1154
    129  CE1      -35.2330   97.0230    4.2910 C.ar  313  HIS313      0.1986
    130  NE2      -34.6690   96.2010    3.4280 N.ar  313  HIS313     -0.2212
    131  N        -34.9360  109.6750   11.3470 N.3   333  LYS333     -0.1245
    132  CA       -35.0870  108.7570   12.4910 C.3   333  LYS333      0.1561
    133  C        -36.4140  109.0640   13.2130 C.2   333  LYS333      0.2260
    134  O        -36.5250  108.8340   14.4130 O.2   333  LYS333     -0.2867
    135  CB       -33.9130  108.8710   13.4980 C.3   333  LYS333      0.0271
    136  CG       -32.4800  108.4480   12.9490 C.3   333  LYS333      0.0035
    137  CD       -32.6000  107.4290   11.7930 C.3   333  LYS333      0.0206
    138  CE       -31.2220  106.7500   11.3910 C.3   333  LYS333      0.1093
    139  NZ       -30.4610  106.0510   12.4870 N.3   333  LYS333     -0.1314
    140  N        -41.0670  106.7150   10.5390 N.3   337  GLN337     -0.1231
    141  CA       -40.1290  105.8730    9.7960 C.3   337  GLN337      0.1698
    142  C        -39.8460  104.5470   10.5420 C.2   337  GLN337      0.2592
    143  O        -39.9070  103.4870    9.9460 O.2   337  GLN337     -0.2718
    144  CB       -38.8200  106.6120    9.5650 C.3   337  GLN337      0.0381
    145  CG       -38.8170  107.5160    8.3740 C.3   337  GLN337      0.0905
    146  CD       -38.9970  106.7420    7.0580 C.2   337  GLN337      0.2608
    147  OE1      -39.5590  107.2660    6.1120 O.2   337  GLN337     -0.2717
    148  NE2      -38.4680  105.5350    6.9930 N.am  337  GLN337     -0.0878
    149  N        -39.5660  104.5930   11.8430 N.am  338  CYS338     -0.1970
    150  CA       -39.4550  103.3330   12.5850 C.3   338  CYS338      0.1712
    151  C        -40.6940  102.4520   12.3930 C.2   338  CYS338      0.2296
    152  O        -40.6060  101.2300   12.3490 O.2   338  CYS338     -0.2864
    153  CB       -39.2950  103.5770   14.1320 C.3   338  CYS338      0.0983
    154  SG       -38.0900  104.8580   14.4290 S.3   338  CYS338     -0.0798
    155  N        -41.4400   99.4020    9.9400 N.3   341  CYS341     -0.1221
    156  CA       -41.1550   98.0310   10.2820 C.3   341  CYS341      0.1808
    157  C        -41.8460   97.5880   11.6300 C.2   341  CYS341      0.2601
    158  O        -42.3660   96.4760   11.7780 O.2   341  CYS341     -0.2717
    159  CB       -39.6430   97.8870   10.4440 C.3   341  CYS341      0.0970
    160  SG       -38.6340   97.8590    8.8840 S.3   341  CYS341     -0.0800
    161  N        -41.8220   98.4700   12.6160 N.am  342  HIS342     -0.1975
    162  CA       -42.2590   98.1140   13.9150 C.3   342  HIS342      0.1656
    163  C        -43.7780   98.3750   13.8740 C.2   342  HIS342      0.2291
    164  O        -44.2080   99.5260   13.9170 O.2   342  HIS342     -0.2864
    165  CB       -41.5500   99.0110   14.9190 C.3   342  HIS342      0.0771
    166  CG       -40.0970   98.7020   15.1270 C.ar  342  HIS342      0.0820
    167  ND1      -39.6510   97.7520   16.0310 N.ar  342  HIS342     -0.2267
    168  CD2      -38.9820   99.3090   14.6510 C.ar  342  HIS342      0.1154
    169  CE1      -38.3250   97.7370   16.0320 C.ar  342  HIS342      0.1986
    170  NE2      -37.8950   98.6730   15.2030 N.ar  342  HIS342     -0.2212
    171  N        -41.1520  103.0010    1.9600 N.3   429  PHE429     -0.1241
    172  CA       -40.4390  103.7780    2.9330 C.3   429  PHE429      0.1605
    173  C        -40.6740  105.2760    2.6470 C.2   429  PHE429      0.2264
    174  O        -40.4650  106.1210    3.5710 O.2   429  PHE429     -0.2867
    175  CB       -38.9420  103.3620    3.0260 C.3   429  PHE429      0.0534
    176  CG       -38.6830  102.1190    3.9070 C.ar  429  PHE429     -0.0203
    177  CD1      -38.4020  102.2420    5.2930 C.ar  429  PHE429     -0.0042
    178  CD2      -38.7390  100.8790    3.3810 C.ar  429  PHE429     -0.0042
    179  CE1      -38.1350  101.1310    6.1230 C.ar  429  PHE429     -0.0003
    180  CE2      -38.5130   99.7570    4.1910 C.ar  429  PHE429     -0.0003
    181  CZ       -38.1730   99.8840    5.5660 C.ar  429  PHE429     -0.0000
@<TRIPOS>BOND
     1   124   123    2
     2   171   172    1
     3   123   122    1
     4   122   121    1
     5   122   125    1
     6   173   172    1
     7   173   174    2
     8   172   175    1
     9   128   130   ar
    10   128   126   ar
    11   175   176    1
    12   178   176   ar
    13   178   180   ar
    14   125   126    1
    15   130   129   ar
    16   126   127   ar
    17   176   177   ar
    18   180   181   ar
    19   129   127   ar
    20   177   179   ar
    21   181   179   ar
    22   117   116    2
    23   111   110    2
    24   147   146    2
    25   116   115    1
    26   148   146   am
    27   110   109    1
    28   110   114   am
    29   146   145    1
    30   109   112    1
    31   109   108    1
    32   115   114    1
    33   115   118    1
    34   112   113    1
    35   145   144    1
    36   119   118    1
    37   160   159    1
    38   118   120    1
    39   144   141    1
    40   141   140    1
    41   141   142    1
    42   155   156    1
    43   143   142    2
    44   156   159    1
    45   156   157    1
    46   142   149   am
    47    93    92    2
    48     8     6    1
    49    65    63    1
    50   131   132    1
    51   138   137    1
    52   138   139    1
    53   101   100    2
    54   157   158    2
    55   157   161   am
    56   137   136    1
    57   149   150    1
    58   100    99    1
    59    92    91    1
    60    92    98   am
    61     6     5    1
    62    99    98    1
    63    99   102    1
    64   152   151    2
    65    61    62    2
    66    61    60    1
    67   151   150    1
    68   132   133    1
    69   132   135    1
    70   150   153    1
    71   161   162    1
    72    96    97    1
    73    96    95    1
    74    91    94    1
    75    91    90    1
    76    63    60    1
    77    63    64    1
    78   136   135    1
    79   133   134    2
    80    60    59    1
    81   105   103   ar
    82   105   107   ar
    83    94    95    1
    84   102   103    1
    85     5     7    1
    86     5     2    1
    87   163   162    1
    88   163   164    2
    89   162   165    1
    90     1     2    1
    91   103   104   ar
    92   153   154    1
    93   107   106   ar
    94     2     3    1
    95   168   166   ar
    96   168   170   ar
    97    59    54   am
    98   165   166    1
    99    55    54    2
   100   166   167   ar
   101   104   106   ar
   102   170   169   ar
   103    54    53    1
   104    84    83    2
   105     3     4    2
   106     3     9   am
   107   167   169   ar
   108    76    75    2
   109    83    82    1
   110    53    56    1
   111    53    52    1
   112     9    10    1
   113    57    56    1
   114    57    58    1
   115    79    78    1
   116    46    45    2
   117    49    50    1
   118    49    48    1
   119    52    45   am
   120    52    58    1
   121    42    41    1
   122    50    51    1
   123    47    48    1
   124    47    44    1
   125    75    74    1
   126    75    81   am
   127    45    44    1
   128    82    81    1
   129    82    85    1
   130    78    80    1
   131    78    77    1
   132    14    15    1
   133    14    16    1
   134    14    13    1
   135    10    13    1
   136    10    11    1
   137    74    77    1
   138    74    73    1
   139    44    43    1
   140    85    86    1
   141    12    11    2
   142    43    37   am
   143    11    17   am
   144    39    40    1
   145    39    36    1
   146    41    40    1
   147    37    36    1
   148    37    38    2
   149    17    23    1
   150    17    18    1
   151    86    87    1
   152    36    35    1
   153    23    22    1
   154    18    21    1
   155    18    19    1
   156    87    89   ar
   157    87    88   ar
   158    35    30   am
   159    22    21    1
   160    19    20    2
   161    30    31    2
   162    30    29    1
   163    33    32    1
   164    66    67    1
   165    69    68    2
   166    67    68    1
   167    67    70    1
   168    28    29    1
   169    28    26   am
   170    72    70    1
   171    29    32    1
   172    32    34    1
   173    70    71    1
   174    25    26    1
   175    25    24    1
   176    26    27    2
