@<TRIPOS>MOLECULE
tmp/1gwsA06.pdb
 213 200 0 0 0
SMALL
GASTEIGER

@<TRIPOS>ATOM
      1  N          0.2550   74.8780   -4.0770 N.3     6  ILE6       -0.1245
      2  CA         0.1800   74.3330   -2.7250 C.3     6  ILE6        0.1561
      3  C          1.5500   74.4530   -2.1530 C.2     6  ILE6        0.2260
      4  O          2.5150   74.1140   -2.8210 O.2     6  ILE6       -0.2867
      5  CB        -0.1140   72.8160   -2.7370 C.3     6  ILE6        0.0252
      6  CG1       -1.5060   72.5530   -3.3080 C.3     6  ILE6        0.0019
      7  CG2        0.0380   72.2490   -1.3630 C.3     6  ILE6        0.0019
      8  CD1       -1.7080   71.1440   -3.8100 C.3     6  ILE6        0.0001
      9  N          3.8010   72.7570    0.2490 N.3     8  ILE8       -0.1245
     10  CA         3.8980   71.5680    1.0540 C.3     8  ILE8        0.1561
     11  C          4.7370   71.7630    2.2820 C.2     8  ILE8        0.2260
     12  O          5.9490   71.9590    2.1940 O.2     8  ILE8       -0.2867
     13  CB         4.4330   70.4250    0.2790 C.3     8  ILE8        0.0252
     14  CG1        3.6340   70.2800   -1.0410 C.3     8  ILE8        0.0019
     15  CG2        4.3270   69.1960    1.1080 C.3     8  ILE8        0.0019
     16  CD1        4.1130   69.1810   -1.9480 C.3     8  ILE8        0.0001
     17  N          3.6140   69.8910    5.5630 N.3    10  ALA10      -0.1245
     18  CA         3.1210   69.0170    6.6550 C.3    10  ALA10       0.1562
     19  C          4.1340   68.7480    7.7350 C.2    10  ALA10       0.2260
     20  O          3.7570   68.4520    8.8210 O.2    10  ALA10      -0.2867
     21  CB         2.6430   67.6570    6.1000 C.3    10  ALA10       0.0290
     22  N          4.3100   73.4480   -5.1550 N.3    24  PHE24      -0.1241
     23  CA         3.8880   72.3280   -5.9980 C.3    24  PHE24       0.1605
     24  C          2.7330   72.8170   -6.8310 C.2    24  PHE24       0.2264
     25  O          1.7380   73.3870   -6.2840 O.2    24  PHE24      -0.2867
     26  CB         3.3920   71.1750   -5.0880 C.3    24  PHE24       0.0534
     27  CG         2.9530   69.8960   -5.8300 C.ar   24  PHE24      -0.0203
     28  CD1        1.6080   69.5420   -5.9120 C.ar   24  PHE24      -0.0042
     29  CD2        3.8650   69.0500   -6.3650 C.ar   24  PHE24      -0.0042
     30  CE1        1.1970   68.3760   -6.5410 C.ar   24  PHE24      -0.0003
     31  CE2        3.4790   67.9130   -6.9740 C.ar   24  PHE24      -0.0003
     32  CZ         2.1430   67.5700   -7.0560 C.ar   24  PHE24      -0.0000
     33  N         -0.3280   71.7470   -8.6890 N.3    26  HIS26      -0.1241
     34  CA        -1.1300   70.5750   -8.7560 C.3    26  HIS26       0.1621
     35  C         -1.7310   70.3110  -10.1290 C.2    26  HIS26       0.2264
     36  O         -1.8210   69.1300  -10.5100 O.2    26  HIS26      -0.2867
     37  CB        -2.2160   70.6350   -7.6860 C.3    26  HIS26       0.0745
     38  CG        -2.8760   69.3310   -7.3970 C.ar   26  HIS26       0.0817
     39  ND1       -3.8910   68.8280   -8.1860 N.ar   26  HIS26      -0.2268
     40  CD2       -2.7500   68.4810   -6.3530 C.ar   26  HIS26       0.1154
     41  CE1       -4.3380   67.6930   -7.6580 C.ar   26  HIS26       0.1986
     42  NE2       -3.6450   67.4500   -6.5550 N.ar   26  HIS26      -0.2212
     43  N          0.7170   69.0110  -12.4000 N.3    29  HIS29      -0.1226
     44  CA         1.0350   67.6260  -12.1450 C.3    29  HIS29       0.1752
     45  C         -0.0560   66.6950  -12.6970 C.2    29  HIS29       0.2596
     46  O          0.1640   65.6070  -13.1510 O.2    29  HIS29      -0.2718
     47  CB         1.3490   67.4270  -10.6380 C.3    29  HIS29       0.0759
     48  CG         2.8080   67.5580  -10.3040 C.ar   29  HIS29       0.0818
     49  ND1        3.3890   68.7610   -9.9580 N.ar   29  HIS29      -0.2268
     50  CD2        3.8180   66.6520  -10.3410 C.ar   29  HIS29       0.1154
     51  CE1        4.6880   68.5840   -9.7660 C.ar   29  HIS29       0.1986
     52  NE2        4.9800   67.3160  -10.0180 N.ar   29  HIS29      -0.2212
     53  N         -1.2720   67.1360  -12.6550 N.am   30  THR30      -0.1953
     54  CA        -2.3550   66.2880  -12.9750 C.3    30  THR30       0.1897
     55  C         -2.4080   66.2790  -14.5550 C.2    30  THR30       0.2313
     56  O         -2.6940   65.2560  -15.1540 O.2    30  THR30      -0.2863
     57  CB        -3.4920   67.0220  -12.3120 C.3    30  THR30       0.1794
     58  OG1       -4.2190   66.1810  -11.3810 O.3    30  THR30      -0.2208
     59  CG2       -4.3940   67.5920  -13.2320 C.3    30  THR30       0.0378
     60  N          0.2760   63.7250  -15.4210 N.3    33  VAL33      -0.1245
     61  CA         0.0420   62.3030  -15.1540 C.3    33  VAL33       0.1561
     62  C         -1.1310   61.7300  -15.9420 C.2    33  VAL33       0.2260
     63  O         -1.1700   60.5590  -16.2320 O.2    33  VAL33      -0.2867
     64  CB         0.0020   61.8880  -13.5570 C.3    33  VAL33       0.0252
     65  CG1        0.6420   62.9600  -12.5980 C.3    33  VAL33       0.0019
     66  CG2       -1.3190   61.4890  -13.1180 C.3    33  VAL33       0.0019
     67  N         -4.0150   58.2960  -13.1850 N.3    39  ASP39      -0.1225
     68  CA        -4.9910   59.1530  -12.5870 C.3    39  ASP39       0.1805
     69  C         -4.6150   59.5730  -11.1380 C.2    39  ASP39       0.2598
     70  O         -3.4370   59.5560  -10.8130 O.2    39  ASP39      -0.2718
     71  CB        -6.3360   58.5110  -12.6950 C.3    39  ASP39       0.1424
     72  CG        -6.3950   57.2190  -11.9970 C.2    39  ASP39       0.3668
     73  OD1       -7.4320   56.5460  -12.0830 O.co2  39  ASP39      -0.2456
     74  OD2       -5.4450   56.7710  -11.3240 O.co2  39  ASP39      -0.2456
     75  N         -5.6000   59.9910  -10.3400 N.am   40  CYS40      -0.1970
     76  CA        -5.3980   60.4810   -8.9730 C.3    40  CYS40       0.1712
     77  C         -4.6390   59.4600   -8.1280 C.2    40  CYS40       0.2296
     78  O         -3.7580   59.8450   -7.3270 O.2    40  CYS40      -0.2864
     79  CB        -6.7500   60.8520   -8.2550 C.3    40  CYS40       0.0983
     80  SG        -7.7800   62.0190   -9.1790 S.3    40  CYS40      -0.0798
     81  N         -2.3120   57.7400   -8.8000 N.3    42  ALA42      -0.1231
     82  CA        -0.8710   57.7120   -8.8600 C.3    42  ALA42       0.1694
     83  C         -0.3270   58.3490   -7.5720 C.2    42  ALA42       0.2592
     84  O          0.6940   57.9530   -7.1280 O.2    42  ALA42      -0.2718
     85  CB        -0.3400   58.4220  -10.1530 C.3    42  ALA42       0.0304
     86  N         -1.0070   59.3190   -6.9720 N.am   43  CYS43      -0.1956
     87  CA        -0.5170   59.9770   -5.7030 C.3    43  CYS43       0.1843
     88  C         -1.4740   59.9620   -4.4800 C.2    43  CYS43       0.2625
     89  O         -1.0910   60.2120   -3.3070 O.2    43  CYS43      -0.2714
     90  CB        -0.0650   61.4080   -5.9650 C.3    43  CYS43       0.0997
     91  SG         0.8420   61.6930   -7.5220 S.3    43  CYS43      -0.0797
     92  N         -2.7250   59.6340   -4.6740 N.am   44  HIS44      -0.1973
     93  CA        -3.5380   59.5900   -3.4740 C.3    44  HIS44       0.1656
     94  C         -4.0120   58.1600   -3.1730 C.2    44  HIS44       0.2291
     95  O         -4.4740   57.4450   -4.0720 O.2    44  HIS44      -0.2864
     96  CB        -4.7420   60.5230   -3.6010 C.3    44  HIS44       0.0771
     97  CG        -4.3880   61.9540   -3.8480 C.ar   44  HIS44       0.0820
     98  ND1       -4.0280   62.8240   -2.8320 N.ar   44  HIS44      -0.2267
     99  CD2       -4.3190   62.6670   -5.0100 C.ar   44  HIS44       0.1154
    100  CE1       -3.8550   64.0270   -3.3530 C.ar   44  HIS44       0.1986
    101  NE2       -3.9790   63.9490   -4.6760 N.ar   44  HIS44      -0.2212
    102  N        -11.1490   58.7040   -1.3910 N.3    51  MET51      -0.1245
    103  CA        -9.7860   59.1670   -1.6220 C.3    51  MET51       0.1570
    104  C         -9.2990   60.0770   -0.4890 C.2    51  MET51       0.2261
    105  O        -10.0300   60.9460   -0.0200 O.2    51  MET51      -0.2867
    106  CB        -9.6920   59.9640   -2.9240 C.3    51  MET51       0.0387
    107  CG        -8.3220   59.9340   -3.5440 C.3    51  MET51       0.0595
    108  SD        -8.0610   60.9500   -5.0380 S.3    51  MET51      -0.1393
    109  CE        -8.1080   62.6050   -4.4220 C.3    51  MET51       0.0692
    110  N         -6.8620   63.1630    0.6470 N.3    53  LEU53      -0.1231
    111  CA        -6.3720   64.3810    0.0360 C.3    53  LEU53       0.1693
    112  C         -4.9070   64.5350    0.3040 C.2    53  LEU53       0.2592
    113  O         -4.3220   65.5420    0.0220 O.2    53  LEU53      -0.2718
    114  CB        -7.1030   65.5500    0.6520 C.3    53  LEU53       0.0284
    115  CG        -8.5830   65.4030    0.4110 C.3    53  LEU53       0.0019
    116  CD1       -9.2190   66.6760    0.8360 C.3    53  LEU53       0.0001
    117  CD2       -8.8980   65.0950   -1.1070 C.3    53  LEU53       0.0001
    118  N         -4.3370   63.5690    0.9780 N.am   54  LYS54      -0.1966
    119  CA        -2.9650   63.6270    1.3540 C.3    54  LYS54       0.1727
    120  C         -2.2490   62.8380    0.2870 C.2    54  LYS54       0.2612
    121  O         -2.8620   61.9860   -0.3390 O.2    54  LYS54      -0.2715
    122  CB        -2.8250   62.8540    2.6800 C.3    54  LYS54       0.0311
    123  CG        -3.1750   63.6480    4.0000 C.3    54  LYS54       0.0038
    124  CD        -3.1240   62.7210    5.1820 C.3    54  LYS54       0.0206
    125  CE        -3.9030   63.2680    6.4240 C.3    54  LYS54       0.1093
    126  NZ        -3.0520   64.1970    7.2230 N.3    54  LYS54      -0.1314
    127  N         -0.9420   63.0690    0.1850 N.am   55  PHE55      -0.2027
    128  CA        -0.0220   62.4200   -0.7260 C.3    55  PHE55       0.1325
    129  C          0.5120   61.1480   -0.1260 C.3    55  PHE55       0.2039
    130  O          1.1770   61.1330    0.9880 O.3    55  PHE55      -0.2185
    131  CB         1.1290   63.3610   -1.1020 C.3    55  PHE55       0.0507
    132  CG         2.1350   62.7910   -2.1270 C.ar   55  PHE55      -0.0204
    133  CD1        1.8060   62.7470   -3.4660 C.ar   55  PHE55      -0.0042
    134  CD2        3.4170   62.3480   -1.7420 C.ar   55  PHE55      -0.0042
    135  CE1        2.6870   62.2890   -4.4550 C.ar   55  PHE55      -0.0003
    136  CE2        4.3520   61.9020   -2.7100 C.ar   55  PHE55      -0.0003
    137  CZ         3.9640   61.8630   -4.1150 C.ar   55  PHE55      -0.0000
    138  N         -0.3560   58.4950    1.5720 N.3    57  ARG57      -0.1245
    139  CA        -0.4800   57.9530    2.9440 C.3    57  ARG57       0.1563
    140  C         -1.9350   58.2140    3.4190 C.2    57  ARG57       0.2260
    141  O         -2.6820   58.9750    2.7920 O.2    57  ARG57      -0.2867
    142  CB         0.5190   58.6480    3.8720 C.3    57  ARG57       0.0307
    143  CG         0.2340   60.1170    4.0780 C.3    57  ARG57       0.0489
    144  CD         1.4650   60.9760    4.3700 C.3    57  ARG57       0.2205
    145  NE         1.0960   62.3570    4.7640 N.pl3  57  ARG57      -0.0865
    146  CZ         1.2490   63.4700    4.0230 C.cat  57  ARG57       0.5346
    147  NH1        1.7230   63.4420    2.7320 N.pl3  57  ARG57       0.1354
    148  NH2        0.8220   64.6340    4.5370 N.pl3  57  ARG57       0.1354
    149  N          7.5480   61.6020    0.8770 N.3    70  TYR70      -0.1241
    150  CA         7.6960   62.5840   -0.1660 C.3    70  TYR70       0.1605
    151  C          8.8650   62.3580   -1.0570 C.2    70  TYR70       0.2264
    152  O          8.6960   62.4030   -2.2280 O.2    70  TYR70      -0.2867
    153  CB         7.8470   63.9580    0.3700 C.3    70  TYR70       0.0534
    154  CG         6.5710   64.5020    0.9560 C.ar   70  TYR70      -0.0201
    155  CD1        6.4240   64.7080    2.3760 C.ar   70  TYR70      -0.0009
    156  CD2        5.5540   64.9290    0.1260 C.ar   70  TYR70      -0.0009
    157  CE1        5.2400   65.2190    2.8970 C.ar   70  TYR70       0.0417
    158  CE2        4.4450   65.4670    0.6170 C.ar   70  TYR70       0.0417
    159  CZ         4.2880   65.5970    2.0080 C.ar   70  TYR70       0.1957
    160  OH         3.1360   66.1340    2.4340 O.3    70  TYR70      -0.2866
    161  N          7.9800   61.4510   -4.6170 N.3    74  CYS74      -0.1235
    162  CA         8.1110   62.6220   -5.4630 C.3    74  CYS74       0.1677
    163  C          9.3060   62.4580   -6.3880 C.2    74  CYS74       0.2270
    164  O          9.2090   62.6400   -7.6300 O.2    74  CYS74      -0.2867
    165  CB         8.3130   63.8940   -4.6800 C.3    74  CYS74       0.0956
    166  SG         7.0360   64.4070   -3.4960 S.3    74  CYS74      -0.0801
    167  N        -12.5730   72.7450    3.8010 N.3   178  ASP178     -0.1239
    168  CA       -11.8380   72.4770    2.5690 C.3   178  ASP178      0.1674
    169  C        -11.8390   71.0030    2.2760 C.2   178  ASP178      0.2266
    170  O        -12.1360   70.5870    1.1330 O.2   178  ASP178     -0.2867
    171  CB       -10.4090   73.0890    2.5210 C.3   178  ASP178      0.1410
    172  CG        -9.5710   72.7160    3.7120 C.2   178  ASP178      0.3668
    173  OD1      -10.0810   72.1200    4.7080 O.co2 178  ASP178     -0.2456
    174  OD2       -8.3710   72.9880    3.7430 O.co2 178  ASP178     -0.2456
    175  N        -13.7090   69.4590   -0.7220 N.3   182  HIS182     -0.1241
    176  CA       -12.9090   68.8310   -1.7500 C.3   182  HIS182      0.1621
    177  C        -13.2200   67.3410   -1.9190 C.2   182  HIS182      0.2264
    178  O        -13.1640   66.8280   -3.0270 O.2   182  HIS182     -0.2867
    179  CB       -11.4240   69.0360   -1.5100 C.3   182  HIS182      0.0745
    180  CG       -10.9440   70.4230   -1.7630 C.ar  182  HIS182      0.0817
    181  ND1       -9.8790   70.9670   -1.0670 N.ar  182  HIS182     -0.2268
    182  CD2      -11.3250   71.3600   -2.6630 C.ar  182  HIS182      0.1154
    183  CE1       -9.6590   72.2040   -1.4980 C.ar  182  HIS182      0.1986
    184  NE2      -10.5260   72.4750   -2.4640 N.ar  182  HIS182     -0.2212
    185  N        -15.5400   67.2980   -5.6770 N.3   186  ILE186     -0.1245
    186  CA       -14.7120   66.6650   -6.6460 C.3   186  ILE186      0.1561
    187  C        -15.0730   65.1860   -6.8590 C.2   186  ILE186      0.2260
    188  O        -15.2050   64.7250   -8.0400 O.2   186  ILE186     -0.2867
    189  CB       -13.2610   66.8240   -6.2640 C.3   186  ILE186      0.0252
    190  CG1      -12.9180   68.2850   -6.1630 C.3   186  ILE186      0.0019
    191  CG2      -12.3780   66.1810   -7.2510 C.3   186  ILE186      0.0019
    192  CD1      -11.5450   68.5840   -5.5220 C.3   186  ILE186      0.0001
    193  N        -16.1960   63.6620  -10.4430 N.3   190  MET190     -0.1245
    194  CA       -15.4420   62.6340  -11.2240 C.3   190  MET190      0.1570
    195  C        -16.3030   61.4220  -11.5070 C.2   190  MET190      0.2261
    196  O        -16.1580   60.7740  -12.5530 O.2   190  MET190     -0.2867
    197  CB       -14.1170   62.1900  -10.6090 C.3   190  MET190      0.0387
    198  CG       -12.9480   63.2480  -10.6010 C.3   190  MET190      0.0595
    199  SD       -11.4110   62.7380   -9.5610 S.3   190  MET190     -0.1393
    200  CE       -10.6450   61.9720  -11.0040 C.3   190  MET190      0.0692
    201  N        -12.7800   69.4660  -11.8300 N.3   202  VAL202     -0.1245
    202  CA       -11.8790   68.7790  -10.9480 C.3   202  VAL202      0.1561
    203  C        -10.4710   69.4030  -10.8390 C.2   202  VAL202      0.2260
    204  O         -9.8040   69.1590   -9.8370 O.2   202  VAL202     -0.2867
    205  CB       -11.8170   67.2300  -11.2580 C.3   202  VAL202      0.0252
    206  CG1      -13.1100   66.7710  -11.9880 C.3   202  VAL202      0.0019
    207  CG2      -10.6720   66.9470  -12.0720 C.3   202  VAL202      0.0019
    208  N         -7.7880   72.4130  -10.0660 N.3   204  CYS204     -0.1235
    209  CA        -7.8980   73.4590   -9.0740 C.3   204  CYS204      0.1677
    210  C         -8.3070   74.8130   -9.7870 C.2   204  CYS204      0.2270
    211  O         -9.2120   75.5860   -9.3530 O.2   204  CYS204     -0.2867
    212  CB        -6.5840   73.5440   -8.2710 C.3   204  CYS204      0.0956
    213  SG        -5.6010   71.9990   -7.9550 S.3   204  CYS204     -0.0801
@<TRIPOS>BOND
     1    63    62    2
     2    62    61    1
     3    60    61    1
     4    56    55    2
     5    61    64    1
     6    55    54    1
     7    64    66    1
     8    64    65    1
     9    59    57    1
    10    67    68    1
    11    46    45    2
    12    54    53    1
    13    54    57    1
    14    45    53   am
    15    45    44    1
    16    71    68    1
    17    71    72    1
    18    68    69    1
    19   196   195    2
    20    43    44    1
    21    57    58    1
    22    44    47    1
    23    73    72   ar
    24   207   205    1
    25    72    74   ar
    26   206   205    1
    27   201   202    1
    28   195   194    1
    29   205   202    1
    30   194   197    1
    31   194   193    1
    32    69    70    2
    33    69    75   am
    34   200   199    1
    35   202   203    1
    36   203   204    2
    37    47    48    1
    38   197   198    1
    39   198   199    1
    40    36    35    2
    41    50    48   ar
    42    50    52   ar
    43    75    76    1
    44    48    49   ar
    45    85    82    1
    46    35    34    1
    47   208   209    1
    48    52    51   ar
    49    49    51   ar
    50   210   211    2
    51   210   209    1
    52    80    79    1
    53   209   212    1
    54    76    79    1
    55    76    77    1
    56    82    81    1
    57    82    83    1
    58    34    33    1
    59    34    37    1
    60   212   213    1
    61    39    41   ar
    62    39    38   ar
    63    77    78    2
    64   188   187    2
    65    37    38    1
    66    41    42   ar
    67   164   163    2
    68    83    84    2
    69    83    86   am
    70    91    90    1
    71    38    40   ar
    72   191   189    1
    73    32    31   ar
    74    32    30   ar
    75    31    29   ar
    76    86    87    1
    77   187   186    1
    78    24    25    2
    79    24    23    1
    80   186   189    1
    81   186   185    1
    82    42    40   ar
    83    30    28   ar
    84   163   162    1
    85    29    27   ar
    86   189   190    1
    87   190   192    1
    88    23    22    1
    89    23    26    1
    90    90    87    1
    91    28    27   ar
    92    27    26    1
    93    87    88    1
    94   162   165    1
    95   162   161    1
    96   108   109    1
    97   108   107    1
    98    99   101   ar
    99    99    97   ar
   100   165   166    1
   101   101   100   ar
   102    92    88   am
   103    92    93    1
   104    88    89    2
   105   135   137   ar
   106   135   133   ar
   107   137   136   ar
   108     1     2    1
   109    95    94    2
   110    97    96    1
   111    97    98   ar
   112     8     6    1
   113    96    93    1
   114   107   106    1
   115    93    94    1
   116   133   132   ar
   117   100    98   ar
   118     6     5    1
   119   178   177    2
   120   106   103    1
   121     4     3    2
   122     5     2    1
   123     5     7    1
   124     2     3    1
   125   136   134   ar
   126   182   184   ar
   127   182   180   ar
   128   184   183   ar
   129   152   151    2
   130   132   134   ar
   131   132   131    1
   132    16    14    1
   133   177   176    1
   134   180   179    1
   135   180   181   ar
   136   176   179    1
   137   176   175    1
   138   103   102    1
   139   103   104    1
   140   183   181   ar
   141   117   115    1
   142   131   128    1
   143   151   150    1
   144    14    13    1
   145   128   129    1
   146   128   127    1
   147   104   105    2
   148   121   120    2
   149   150   153    1
   150   150   149    1
   151   129   130    1
   152   113   112    2
   153   111   112    1
   154   111   110    1
   155   111   114    1
   156   156   158   ar
   157   156   154   ar
   158   127   120   am
   159     9    10    1
   160    13    10    1
   161    13    15    1
   162   120   119    1
   163   112   118   am
   164   153   154    1
   165   115   114    1
   166   115   116    1
   167   158   159   ar
   168   154   155   ar
   169   118   119    1
   170    10    11    1
   171   170   169    2
   172   119   122    1
   173   138   139    1
   174   159   160    1
   175   159   157   ar
   176    12    11    2
   177   169   168    1
   178   155   157   ar
   179   171   168    1
   180   171   172    1
   181   168   167    1
   182   122   123    1
   183   147   146    1
   184   141   140    2
   185   139   140    1
   186   139   142    1
   187   172   174   ar
   188   172   173   ar
   189   142   143    1
   190   123   124    1
   191   146   148    1
   192   146   145    2
   193   143   144    1
   194   144   145    1
   195   124   125    1
   196    17    18    1
   197    21    18    1
   198   125   126    1
   199    18    19    1
   200    19    20    2
