@<TRIPOS>MOLECULE
tmp/1gwsA15.pdb
 229 219 0 0 0
SMALL
GASTEIGER

@<TRIPOS>ATOM
      1  N        -40.4790   88.6400   13.9300 N.3   235  ILE235     -0.1245
      2  CA       -39.2220   88.8300   14.6430 C.3   235  ILE235      0.1561
      3  C        -39.4630   89.5740   15.9630 C.2   235  ILE235      0.2260
      4  O        -40.1650   90.5740   16.0070 O.2   235  ILE235     -0.2867
      5  CB       -38.2780   89.6090   13.7390 C.3   235  ILE235      0.0252
      6  CG1      -38.3950   89.0830   12.2820 C.3   235  ILE235      0.0019
      7  CG2      -36.8590   89.5670   14.3250 C.3   235  ILE235      0.0019
      8  CD1      -37.4230   89.7960   11.2450 C.3   235  ILE235      0.0001
      9  N        -41.6680   92.9830   14.7020 N.3   254  VAL254     -0.1231
     10  CA       -41.6600   93.2360   13.2770 C.3   254  VAL254      0.1692
     11  C        -41.9440   92.0940   12.3730 C.2   254  VAL254      0.2592
     12  O        -41.2720   91.1280   12.4360 O.2   254  VAL254     -0.2718
     13  CB       -40.4190   94.0830   12.7190 C.3   254  VAL254      0.0266
     14  CG1      -39.4090   94.5370   13.7830 C.3   254  VAL254      0.0020
     15  CG2      -39.8960   93.6000   11.2900 C.3   254  VAL254      0.0020
     16  N        -43.0310   92.2030   11.6250 N.am  255  ALA255     -0.1966
     17  CA       -43.3520   91.2550   10.5940 C.3   255  ALA255      0.1728
     18  C        -42.4090   91.4990    9.4320 C.2   255  ALA255      0.2616
     19  O        -42.0260   92.6630    9.1800 O.2   255  ALA255     -0.2715
     20  CB       -44.7390   91.4370   10.1400 C.3   255  ALA255      0.0334
     21  N        -42.1040   90.4180    8.6970 N.am  256  PHE256     -0.1960
     22  CA       -41.0700   90.4110    7.6920 C.3   256  PHE256      0.1771
     23  C        -41.5080   89.5330    6.5370 C.2   256  PHE256      0.2619
     24  O        -41.9310   88.3710    6.7320 O.2   256  PHE256     -0.2715
     25  CB       -39.7850   89.8780    8.3340 C.3   256  PHE256      0.0574
     26  CG       -38.6340   89.6970    7.3950 C.ar  256  PHE256     -0.0200
     27  CD1      -38.0750   90.7940    6.6990 C.ar  256  PHE256     -0.0042
     28  CD2      -38.0940   88.4480    7.2000 C.ar  256  PHE256     -0.0042
     29  CE1      -37.0300   90.6050    5.7590 C.ar  256  PHE256     -0.0003
     30  CE2      -37.0340   88.2600    6.2830 C.ar  256  PHE256     -0.0003
     31  CZ       -36.4730   89.3460    5.6100 C.ar  256  PHE256     -0.0000
     32  N        -41.4370   90.0880    5.3280 N.am  257  ASP257     -0.1971
     33  CA       -41.8620   89.3510    4.1330 C.3   257  ASP257      0.1709
     34  C        -40.7300   88.4130    3.6480 C.2   257  ASP257      0.2293
     35  O        -39.9980   88.7590    2.7350 O.2   257  ASP257     -0.2864
     36  CB       -42.2330   90.3310    3.0050 C.3   257  ASP257      0.1436
     37  CG       -42.9730   89.6340    1.8640 C.2   257  ASP257      0.3671
     38  OD1      -42.6870   88.4270    1.6980 O.co2 257  ASP257     -0.2456
     39  OD2      -43.8310   90.1710    1.0960 O.co2 257  ASP257     -0.2456
     40  N        -40.6500   87.3880   -0.2220 N.3   260  ALA260     -0.1231
     41  CA       -40.2760   88.3910   -1.1560 C.3   260  ALA260      0.1694
     42  C        -38.7640   88.5940   -1.0660 C.2   260  ALA260      0.2592
     43  O        -38.0890   88.7640   -2.1030 O.2   260  ALA260     -0.2718
     44  CB       -41.0570   89.6710   -0.9100 C.3   260  ALA260      0.0304
     45  N        -38.2050   88.5110    0.1520 N.am  261  HIS261     -0.1976
     46  CA       -36.7490   88.7920    0.3460 C.3   261  HIS261      0.1656
     47  C        -35.9100   87.7010   -0.3510 C.2   261  HIS261      0.2291
     48  O        -34.8800   87.9770   -0.9820 O.2   261  HIS261     -0.2864
     49  CB       -36.3640   89.1040    1.8450 C.3   261  HIS261      0.0771
     50  CG       -36.5420   90.5440    2.2450 C.ar  261  HIS261      0.0820
     51  ND1      -37.7390   91.0590    2.6880 N.ar  261  HIS261     -0.2267
     52  CD2      -35.6670   91.5880    2.2740 C.ar  261  HIS261      0.1154
     53  CE1      -37.6040   92.3470    2.9630 C.ar  261  HIS261      0.1986
     54  NE2      -36.3450   92.6930    2.7350 N.ar  261  HIS261     -0.2212
     55  N        -35.4280   88.3730   -3.7940 N.3   264  LYS264     -0.1231
     56  CA       -34.4410   89.4000   -4.2240 C.3   264  LYS264      0.1693
     57  C        -32.9920   89.1570   -3.8950 C.2   264  LYS264      0.2591
     58  O        -32.1240   89.8720   -4.3680 O.2   264  LYS264     -0.2718
     59  CB       -34.8360   90.7670   -3.7450 C.3   264  LYS264      0.0285
     60  CG       -36.0430   91.2530   -4.5540 C.3   264  LYS264      0.0035
     61  CD       -35.6020   91.9150   -5.8010 C.3   264  LYS264      0.0206
     62  CE       -36.8210   92.3900   -6.5010 C.3   264  LYS264      0.1093
     63  NZ       -37.3870   91.1030   -7.0850 N.3   264  LYS264     -0.1314
     64  N        -32.7110   88.1600   -3.0610 N.am  265  ALA265     -0.1980
     65  CA       -31.3430   87.9940   -2.6170 C.3   265  ALA265      0.1597
     66  C        -30.5820   86.9670   -3.4180 C.2   265  ALA265      0.2287
     67  O        -31.1210   86.2330   -4.1960 O.2   265  ALA265     -0.2864
     68  CB       -31.3210   87.6780   -1.1220 C.3   265  ALA265      0.0319
     69  N        -26.2290   85.1110    3.0480 N.3   270  THR270     -0.1203
     70  CA       -26.0190   86.5560    3.2260 C.3   270  THR270      0.1994
     71  C        -26.6610   87.0510    4.5180 C.2   270  THR270      0.2618
     72  O        -26.1130   87.8950    5.2480 O.2   270  THR270     -0.2717
     73  CB       -26.7060   87.3860    2.1140 C.3   270  THR270      0.1784
     74  OG1      -26.1980   87.0580    0.8090 O.3   270  THR270     -0.2211
     75  CG2      -26.3900   88.8560    2.3080 C.3   270  THR270      0.0376
     76  N        -27.8750   86.5900    4.7570 N.am  271  CYS271     -0.1969
     77  CA       -28.5070   86.9140    6.0240 C.3   271  CYS271      0.1712
     78  C        -28.1790   85.8970    7.0600 C.2   271  CYS271      0.2296
     79  O        -27.7780   86.2320    8.1850 O.2   271  CYS271     -0.2864
     80  CB       -30.0140   87.0920    5.8600 C.3   271  CYS271      0.0983
     81  SG       -30.3680   88.2100    4.4910 S.3   271  CYS271     -0.0798
     82  N        -32.6240   84.7500   14.0930 N.3   279  CYS279     -0.1235
     83  CA       -31.5080   85.5610   14.4280 C.3   279  CYS279      0.1677
     84  C        -31.4300   85.6970   15.9390 C.2   279  CYS279      0.2270
     85  O        -30.3400   85.8730   16.5220 O.2   279  CYS279     -0.2867
     86  CB       -31.7650   86.9410   13.9090 C.3   279  CYS279      0.0956
     87  SG       -32.0470   86.9700   12.1270 S.3   279  CYS279     -0.0801
     88  N        -30.0510   94.1920   13.5680 N.3   300  MET300     -0.1245
     89  CA       -31.1690   94.5590   12.6970 C.3   300  MET300      0.1570
     90  C        -31.0600   95.9850   12.0810 C.2   300  MET300      0.2261
     91  O        -31.6820   96.2900   11.0290 O.2   300  MET300     -0.2867
     92  CB       -32.5070   94.3510   13.4580 C.3   300  MET300      0.0387
     93  CG       -32.7240   92.9070   14.0120 C.3   300  MET300      0.0595
     94  SD       -33.0020   91.6970   12.6160 S.3   300  MET300     -0.1393
     95  CE       -32.5190   90.1310   13.5070 C.3   300  MET300      0.0692
     96  N        -24.2720   94.2160    5.4690 N.3   306  MET306     -0.1230
     97  CA       -25.1900   93.7180    4.4370 C.3   306  MET306      0.1702
     98  C        -26.1740   92.7520    5.0800 C.2   306  MET306      0.2592
     99  O        -27.2190   92.4390    4.4920 O.2   306  MET306     -0.2718
    100  CB       -24.4130   92.9820    3.3310 C.3   306  MET306      0.0401
    101  CG       -25.2350   92.4390    2.1650 C.3   306  MET306      0.0596
    102  SD       -25.5340   93.6070    0.8740 S.3   306  MET306     -0.1393
    103  CE       -24.0920   94.4660    0.8990 C.3   306  MET306      0.0692
    104  N        -25.8380   92.3120    6.2980 N.am  307  ARG307     -0.1966
    105  CA       -26.6360   91.3470    7.0070 C.3   307  ARG307      0.1729
    106  C        -27.8540   91.9560    7.6730 C.2   307  ARG307      0.2617
    107  O        -28.7750   91.2200    7.9830 O.2   307  ARG307     -0.2715
    108  CB       -25.8120   90.7120    8.1370 C.3   307  ARG307      0.0348
    109  CG       -24.8320   89.6840    7.7240 C.3   307  ARG307      0.0492
    110  CD       -23.6630   89.7080    8.6410 C.3   307  ARG307      0.2205
    111  NE       -22.4740   88.8900    8.3810 N.pl3 307  ARG307     -0.0865
    112  CZ       -21.5760   88.6330    9.3780 C.cat 307  ARG307      0.5346
    113  NH1      -21.7970   89.1090   10.6170 N.pl3 307  ARG307      0.1354
    114  NH2      -20.4800   87.9110    9.1540 N.pl3 307  ARG307      0.1354
    115  N        -27.8390   93.2610    7.9640 N.am  308  SER308     -0.1936
    116  CA       -28.9570   93.8790    8.6750 C.3   308  SER308      0.2055
    117  C        -29.9520   94.5670    7.7760 C.2   308  SER308      0.2643
    118  O        -29.6190   94.9600    6.6580 O.2   308  SER308     -0.2714
    119  CB       -28.4890   94.8440    9.7140 C.3   308  SER308      0.2130
    120  OG       -28.0910   96.0260    9.1090 O.3   308  SER308     -0.2179
    121  N        -31.1910   94.7130    8.2880 N.am  309  CYS309     -0.1967
    122  CA       -32.2690   95.2830    7.4830 C.3   309  CYS309      0.1712
    123  C        -31.8470   96.6950    7.0280 C.2   309  CYS309      0.2296
    124  O        -31.7850   96.9820    5.8200 O.2   309  CYS309     -0.2864
    125  CB       -33.6030   95.3560    8.2190 C.3   309  CYS309      0.0983
    126  SG       -33.9580   94.1340    9.5030 S.3   309  CYS309     -0.0798
    127  N        -28.4390   96.3710    4.6810 N.3   312  CYS312     -0.1221
    128  CA       -28.6650   95.9790    3.3220 C.3   312  CYS312      0.1808
    129  C        -29.3710   97.0620    2.6160 C.2   312  CYS312      0.2601
    130  O        -29.0790   97.3140    1.4510 O.2   312  CYS312     -0.2717
    131  CB       -29.5320   94.7640    3.2010 C.3   312  CYS312      0.0970
    132  SG       -29.4970   94.2600    1.5050 S.3   312  CYS312     -0.0800
    133  N        -30.3280   97.6950    3.2790 N.am  313  HIS313     -0.1975
    134  CA       -31.1620   98.6850    2.5950 C.3   313  HIS313      0.1656
    135  C        -30.2890   99.8520    2.2320 C.2   313  HIS313      0.2291
    136  O        -30.4170  100.4210    1.1580 O.2   313  HIS313     -0.2864
    137  CB       -32.3730   99.0900    3.4160 C.3   313  HIS313      0.0771
    138  CG       -33.4070   98.0120    3.5330 C.ar  313  HIS313      0.0820
    139  ND1      -34.4860   98.1120    4.3740 N.ar  313  HIS313     -0.2267
    140  CD2      -33.5150   96.7980    2.9400 C.ar  313  HIS313      0.1154
    141  CE1      -35.2330   97.0230    4.2910 C.ar  313  HIS313      0.1986
    142  NE2      -34.6690   96.2010    3.4280 N.ar  313  HIS313     -0.2212
    143  N        -28.7250   99.5290   -1.0820 N.3   316  ARG316     -0.1245
    144  CA       -29.5750   99.5900   -2.3030 C.3   316  ARG316      0.1563
    145  C        -29.6990  101.0600   -2.6550 C.2   316  ARG316      0.2260
    146  O        -29.7880  101.4820   -3.7800 O.2   316  ARG316     -0.2867
    147  CB       -30.9500   98.8920   -2.1580 C.3   316  ARG316      0.0307
    148  CG       -31.0380   97.2710   -2.3360 C.3   316  ARG316      0.0489
    149  CD       -30.4590   96.5630   -3.6710 C.3   316  ARG316      0.2205
    150  NE       -31.3290   96.3500   -4.8860 N.pl3 316  ARG316     -0.0865
    151  CZ       -32.4910   96.9980   -5.1700 C.cat 316  ARG316      0.5346
    152  NH1      -33.0130   97.9170   -4.3320 N.pl3 316  ARG316      0.1354
    153  NH2      -33.1470   96.7160   -6.2900 N.pl3 316  ARG316      0.1354
    154  N        -42.2930  102.0260    9.9890 N.3   340  VAL340     -0.1231
    155  CA       -42.4710  101.2370    8.7500 C.3   340  VAL340      0.1692
    156  C        -42.2760   99.7510    8.9710 C.2   340  VAL340      0.2592
    157  O        -42.8810   98.9270    8.2880 O.2   340  VAL340     -0.2718
    158  CB       -41.5490  101.6330    7.7160 C.3   340  VAL340      0.0266
    159  CG1      -41.7080  100.6260    6.4940 C.3   340  VAL340      0.0020
    160  CG2      -41.8540  103.0810    7.3160 C.3   340  VAL340      0.0020
    161  N        -41.4400   99.4020    9.9400 N.am  341  CYS341     -0.1970
    162  CA       -41.1550   98.0310   10.2820 C.3   341  CYS341      0.1712
    163  C        -41.8460   97.5880   11.6300 C.2   341  CYS341      0.2296
    164  O        -42.3660   96.4760   11.7780 O.2   341  CYS341     -0.2864
    165  CB       -39.6430   97.8870   10.4440 C.3   341  CYS341      0.0983
    166  SG       -38.6340   97.8590    8.8840 S.3   341  CYS341     -0.0798
    167  N        -50.5870   96.6190    6.3030 N.3   377  ARG377     -0.1245
    168  CA       -49.8280   97.8510    6.1930 C.3   377  ARG377      0.1563
    169  C        -50.6400   98.8580    5.2890 C.2   377  ARG377      0.2260
    170  O        -51.4920   98.4820    4.4610 O.2   377  ARG377     -0.2867
    171  CB       -48.4060   97.6000    5.6620 C.3   377  ARG377      0.0307
    172  CG       -47.4120   97.2150    6.7330 C.3   377  ARG377      0.0489
    173  CD       -46.1850   96.4230    6.2680 C.3   377  ARG377      0.2205
    174  NE       -46.4170   95.5960    5.0750 N.pl3 377  ARG377     -0.0865
    175  CZ       -45.4330   95.1490    4.2740 C.cat 377  ARG377      0.5346
    176  NH1      -44.1820   95.4030    4.6530 N.pl3 377  ARG377      0.1354
    177  NH2      -45.6780   94.3970    3.2000 N.pl3 377  ARG377      0.1354
    178  N        -40.3230  100.3130  -10.1740 N.3   422  GLU422     -0.1231
    179  CA       -41.1290   99.4020   -9.3300 C.3   422  GLU422      0.1699
    180  C        -40.5680   99.0710   -7.9330 C.2   422  GLU422      0.2592
    181  O        -41.1490   98.2630   -7.2340 O.2   422  GLU422     -0.2718
    182  CB       -41.3480   98.0770  -10.1050 C.3   422  GLU422      0.0402
    183  CG       -42.6140   98.0320  -10.9450 C.3   422  GLU422      0.1161
    184  CD       -42.3710   97.6050  -12.4260 C.2   422  GLU422      0.3649
    185  OE1      -41.9510   96.4250  -12.6920 O.co2 422  GLU422     -0.2457
    186  OE2      -42.6340   98.4380  -13.3670 O.co2 422  GLU422     -0.2457
    187  N        -39.4330   99.6710   -7.5880 N.am  423  ASP423     -0.1960
    188  CA       -38.7430   99.3490   -6.3610 C.3   423  ASP423      0.1840
    189  C        -39.6240   99.4630   -5.0690 C.2   423  ASP423      0.2622
    190  O        -40.2170  100.5030   -4.7400 O.2   423  ASP423     -0.2715
    191  CB       -37.4770  100.1760   -6.1920 C.3   423  ASP423      0.1450
    192  CG       -36.7660   99.8700   -4.8640 C.2   423  ASP423      0.3671
    193  OD1      -35.5820   99.4310   -4.9080 O.co2 423  ASP423     -0.2456
    194  OD2      -37.3370   99.9950   -3.7460 O.co2 423  ASP423     -0.2456
    195  N        -39.6650   98.3610   -4.3550 N.am  424  LYS424     -0.1963
    196  CA       -40.5210   98.2750   -3.2220 C.3   424  LYS424      0.1728
    197  C        -39.9710   98.8520   -1.9580 C.2   424  LYS424      0.2616
    198  O        -40.7560   99.2160   -1.1450 O.2   424  LYS424     -0.2715
    199  CB       -40.9790   96.8530   -3.0220 C.3   424  LYS424      0.0311
    200  CG       -41.7070   96.3420   -4.2540 C.3   424  LYS424      0.0038
    201  CD       -43.1320   96.7670   -4.2550 C.3   424  LYS424      0.0206
    202  CE       -44.0050   95.9150   -5.2230 C.3   424  LYS424      0.1093
    203  NZ       -43.8690   96.3400   -6.6760 N.3   424  LYS424     -0.1314
    204  N        -38.6650   99.0190   -1.8110 N.am  425  LEU425     -0.1977
    205  CA       -38.0940   99.7260   -0.6360 C.3   425  LEU425      0.1596
    206  C        -38.5740  101.1530   -0.6970 C.2   425  LEU425      0.2287
    207  O        -39.1300  101.7000    0.2460 O.2   425  LEU425     -0.2864
    208  CB       -36.5830   99.7520   -0.8020 C.3   425  LEU425      0.0297
    209  CG       -35.5380   99.4030    0.2380 C.3   425  LEU425      0.0022
    210  CD1      -36.0710   98.6890    1.4610 C.3   425  LEU425      0.0001
    211  CD2      -34.2370   98.7720   -0.3220 C.3   425  LEU425      0.0001
    212  N        -42.5190  101.6790   -0.1620 N.3   428  THR428     -0.1203
    213  CA       -43.0410  101.5970    1.1880 C.3   428  THR428      0.1994
    214  C        -42.3780  102.5380    2.2050 C.2   428  THR428      0.2617
    215  O        -43.0350  102.9130    3.1410 O.2   428  THR428     -0.2717
    216  CB       -43.2020  100.0870    1.6620 C.3   428  THR428      0.1784
    217  OG1      -42.7700   99.8560    3.0320 O.3   428  THR428     -0.2211
    218  CG2      -42.4020   99.2250    0.8580 C.3   428  THR428      0.0376
    219  N        -41.1520  103.0010    1.9600 N.am  429  PHE429     -0.1975
    220  CA       -40.4390  103.7780    2.9330 C.3   429  PHE429      0.1639
    221  C        -40.6740  105.2760    2.6470 C.2   429  PHE429      0.2290
    222  O        -40.4650  106.1210    3.5710 O.2   429  PHE429     -0.2864
    223  CB       -38.9420  103.3620    3.0260 C.3   429  PHE429      0.0560
    224  CG       -38.6830  102.1190    3.9070 C.ar  429  PHE429     -0.0200
    225  CD1      -38.4020  102.2420    5.2930 C.ar  429  PHE429     -0.0042
    226  CD2      -38.7390  100.8790    3.3810 C.ar  429  PHE429     -0.0042
    227  CE1      -38.1350  101.1310    6.1230 C.ar  429  PHE429     -0.0003
    228  CE2      -38.5130   99.7570    4.1910 C.ar  429  PHE429     -0.0003
    229  CZ       -38.1730   99.8840    5.5660 C.ar  429  PHE429     -0.0000
@<TRIPOS>BOND
     1   186   184   ar
     2   185   184   ar
     3   184   183    1
     4   183   182    1
     5   178   179    1
     6   182   179    1
     7   179   180    1
     8   180   187   am
     9   180   181    2
    10   187   188    1
    11    63    62    1
    12   203   202    1
    13    62    61    1
    14   188   191    1
    15   188   189    1
    16   153   151    1
    17   191   192    1
    18    61    60    1
    19   202   201    1
    20   151   150    2
    21   151   152    1
    22   189   190    2
    23   189   195   am
    24   193   192   ar
    25   150   149    1
    26   192   194   ar
    27    60    59    1
    28    58    57    2
    29   195   196    1
    30   201   200    1
    31   200   199    1
    32    56    57    1
    33    56    55    1
    34    56    59    1
    35    67    66    2
    36    57    64   am
    37   146   145    2
    38   149   148    1
    39    66    65    1
    40   196   199    1
    41   196   197    1
    42    64    65    1
    43   145   144    1
    44    65    68    1
    45   148   147    1
    46   144   147    1
    47   144   143    1
    48    43    42    2
    49   197   204   am
    50   197   198    2
    51   204   205    1
    52    41    42    1
    53    41    44    1
    54    41    40    1
    55    42    45   am
    56    48    47    2
    57   208   205    1
    58   208   209    1
    59   206   205    1
    60   206   207    2
    61    47    46    1
    62   211   209    1
    63   212   213    1
    64    45    46    1
    65   209   210    1
    66    46    49    1
    67    74    73    1
    68   218   216    1
    69   102   103    1
    70   102   101    1
    71    39    37   ar
    72   136   135    2
    73   213   216    1
    74   213   214    1
    75   130   129    2
    76   132   131    1
    77   216   217    1
    78    38    37   ar
    79    49    50    1
    80    37    36    1
    81   219   214   am
    82   219   220    1
    83    73    75    1
    84    73    70    1
    85   101   100    1
    86   214   215    2
    87   135   134    1
    88    50    52   ar
    89    50    51   ar
    90    52    54   ar
    91   134   133    1
    92   134   137    1
    93   129   133   am
    94   129   128    1
    95   221   220    1
    96   221   222    2
    97    51    53   ar
    98    54    53   ar
    99    35    34    2
   100   220   223    1
   101   140   142   ar
   102   140   138   ar
   103    36    33    1
   104   223   224    1
   105    69    70    1
   106   177   175    1
   107   131   128    1
   108    70    71    1
   109   128   127    1
   110   100    97    1
   111   226   224   ar
   112   226   228   ar
   113   137   138    1
   114   142   141   ar
   115   138   139   ar
   116    34    33    1
   117   224   225   ar
   118    33    32    1
   119   228   229   ar
   120   175   176    1
   121   175   174    2
   122   141   139   ar
   123    97    98    1
   124    97    96    1
   125   170   169    2
   126    81    80    1
   127    99    98    2
   128    71    76   am
   129    71    72    2
   130    76    77    1
   131   174   173    1
   132    98   104   am
   133   169   168    1
   134   225   227   ar
   135    32    23   am
   136   229   227   ar
   137    31    29   ar
   138    31    30   ar
   139   171   168    1
   140   171   172    1
   141    29    27   ar
   142   124   123    2
   143    80    77    1
   144    77    78    1
   145   168   167    1
   146   173   172    1
   147    30    28   ar
   148   104   105    1
   149   159   158    1
   150    23    24    2
   151    23    22    1
   152   118   117    2
   153    27    26   ar
   154   105   106    1
   155   105   108    1
   156   123   122    1
   157    78    79    2
   158    28    26   ar
   159   160   158    1
   160    26    25    1
   161   122   125    1
   162   122   121    1
   163   106   115   am
   164   106   107    2
   165    22    25    1
   166    22    21    1
   167   158   155    1
   168   109   108    1
   169   109   110    1
   170   117   121   am
   171   117   116    1
   172   115   116    1
   173   125   126    1
   174   157   156    2
   175   111   110    1
   176   111   112    2
   177   116   119    1
   178    21    18   am
   179   155   156    1
   180   155   154    1
   181   166   165    1
   182   156   161   am
   183   120   119    1
   184   114   112    1
   185    19    18    2
   186   112   113    1
   187    18    17    1
   188   161   162    1
   189    20    17    1
   190   162   165    1
   191   162   163    1
   192    17    16    1
   193    91    90    2
   194     8     6    1
   195    15    13    1
   196    16    11   am
   197   163   164    2
   198    90    89    1
   199    87    86    1
   200     6     5    1
   201    11    12    2
   202    11    10    1
   203    94    95    1
   204    94    93    1
   205    89    92    1
   206    89    88    1
   207    13    10    1
   208    13    14    1
   209    10     9    1
   210    92    93    1
   211     5     7    1
   212     5     2    1
   213    86    83    1
   214     1     2    1
   215    82    83    1
   216    83    84    1
   217     2     3    1
   218    84    85    2
   219     3     4    2
