@<TRIPOS>MOLECULE
tmp/1gwsA12.pdb
 193 188 0 0 0
SMALL
GASTEIGER

@<TRIPOS>ATOM
      1  N         -3.6570   79.4250   -9.7150 N.3     3  ALA3       -0.1231
      2  CA        -4.7720   79.1270   -8.8020 C.3     3  ALA3        0.1694
      3  C         -4.6290   77.7290   -8.2220 C.2     3  ALA3        0.2592
      4  O         -5.5300   77.2180   -7.5020 O.2     3  ALA3       -0.2718
      5  CB        -6.0860   79.1740   -9.5800 C.3     3  ALA3        0.0304
      6  N         -3.4890   77.1160   -8.5220 N.am    4  ASP4       -0.1960
      7  CA        -3.2850   75.7370   -8.1760 C.3     4  ASP4        0.1840
      8  C         -2.0300   75.4730   -7.3800 C.2     4  ASP4        0.2622
      9  O         -1.5100   74.3810   -7.4220 O.2     4  ASP4       -0.2715
     10  CB        -3.2150   74.9290   -9.4860 C.3     4  ASP4        0.1450
     11  CG        -1.8830   75.0970  -10.1890 C.2     4  ASP4        0.3671
     12  OD1       -1.2990   76.2140  -10.1390 O.co2   4  ASP4       -0.2456
     13  OD2       -1.3470   74.1570  -10.8320 O.co2   4  ASP4       -0.2456
     14  N         -1.5230   76.4820   -6.7100 N.am    5  LEU5       -0.1963
     15  CA        -0.3250   76.3290   -5.8820 C.3     5  LEU5        0.1728
     16  C         -0.5880   75.7920   -4.5100 C.2     5  LEU5        0.2616
     17  O         -1.4800   76.2450   -3.8460 O.2     5  LEU5       -0.2715
     18  CB         0.3550   77.6790   -5.6540 C.3     5  LEU5        0.0311
     19  CG        -0.1980   78.7010   -6.6160 C.3     5  LEU5        0.0022
     20  CD1        0.2610   78.1610   -7.9920 C.3     5  LEU5        0.0001
     21  CD2       -1.8790   79.0050   -6.3870 C.3     5  LEU5        0.0001
     22  N          0.2550   74.8780   -4.0770 N.am    6  ILE6       -0.1977
     23  CA         0.1800   74.3330   -2.7250 C.3     6  ILE6        0.1596
     24  C          1.5500   74.4530   -2.1530 C.2     6  ILE6        0.2287
     25  O          2.5150   74.1140   -2.8210 O.2     6  ILE6       -0.2864
     26  CB        -0.1140   72.8160   -2.7370 C.3     6  ILE6        0.0276
     27  CG1       -1.5060   72.5530   -3.3080 C.3     6  ILE6        0.0022
     28  CG2        0.0380   72.2490   -1.3630 C.3     6  ILE6        0.0022
     29  CD1       -1.7080   71.1440   -3.8100 C.3     6  ILE6        0.0001
     30  N         -0.3280   71.7470   -8.6890 N.3    26  HIS26      -0.1241
     31  CA        -1.1300   70.5750   -8.7560 C.3    26  HIS26       0.1621
     32  C         -1.7310   70.3110  -10.1290 C.2    26  HIS26       0.2264
     33  O         -1.8210   69.1300  -10.5100 O.2    26  HIS26      -0.2867
     34  CB        -2.2160   70.6350   -7.6860 C.3    26  HIS26       0.0745
     35  CG        -2.8760   69.3310   -7.3970 C.ar   26  HIS26       0.0817
     36  ND1       -3.8910   68.8280   -8.1860 N.ar   26  HIS26      -0.2268
     37  CD2       -2.7500   68.4810   -6.3530 C.ar   26  HIS26       0.1154
     38  CE1       -4.3380   67.6930   -7.6580 C.ar   26  HIS26       0.1986
     39  NE2       -3.6450   67.4500   -6.5550 N.ar   26  HIS26      -0.2212
     40  N         -5.5580   82.5860   -6.8110 N.3   109  TRP109     -0.1241
     41  CA        -6.6270   81.7520   -6.2190 C.3   109  TRP109      0.1605
     42  C         -7.7900   82.5880   -5.7180 C.2   109  TRP109      0.2264
     43  O         -7.5850   83.7140   -5.3010 O.2   109  TRP109     -0.2867
     44  CB        -6.0680   80.7920   -5.1620 C.3   109  TRP109      0.0550
     45  CG        -7.0480   79.9750   -4.3730 C.ar  109  TRP109      0.0003
     46  CD1       -7.2680   78.6270   -4.4780 C.ar  109  TRP109      0.0946
     47  CD2       -7.8670   80.4150   -3.2780 C.ar  109  TRP109      0.0152
     48  NE1       -8.1710   78.2100   -3.5280 N.ar  109  TRP109     -0.2442
     49  CE2       -8.5610   79.2890   -2.7860 C.ar  109  TRP109      0.0810
     50  CE3       -8.0670   81.6490   -2.6470 C.ar  109  TRP109      0.0012
     51  CZ2       -9.4690   79.3630   -1.7160 C.ar  109  TRP109      0.0191
     52  CZ3       -8.9640   81.7220   -1.5720 C.ar  109  TRP109      0.0001
     53  CH2       -9.6440   80.5790   -1.1130 C.ar  109  TRP109      0.0015
     54  N        -11.8020   82.1080   -3.4750 N.3   111  GLU111     -0.1231
     55  CA       -12.8720   81.3160   -2.8210 C.3   111  GLU111      0.1699
     56  C        -13.9430   81.0150   -3.8970 C.2   111  GLU111      0.2592
     57  O        -14.1410   81.8100   -4.8530 O.2   111  GLU111     -0.2718
     58  CB       -13.4790   82.0270   -1.5730 C.3   111  GLU111      0.0402
     59  CG       -14.4170   81.1770   -0.6200 C.3   111  GLU111      0.1161
     60  CD       -14.5180   81.6300    0.9060 C.2   111  GLU111      0.3649
     61  OE1      -15.0700   82.7190    1.2360 O.co2 111  GLU111     -0.2457
     62  OE2      -14.0950   80.8830    1.8330 O.co2 111  GLU111     -0.2457
     63  N        -14.5490   79.8320   -3.8060 N.am  112  ILE112     -0.1966
     64  CA       -15.7090   79.5890   -4.6030 C.3   112  ILE112      0.1727
     65  C        -16.8980   79.3010   -3.6730 C.2   112  ILE112      0.2616
     66  O        -16.7610   78.7510   -2.5440 O.2   112  ILE112     -0.2715
     67  CB       -15.5460   78.4300   -5.5860 C.3   112  ILE112      0.0290
     68  CG1      -16.7930   78.3880   -6.4740 C.3   112  ILE112      0.0022
     69  CG2      -15.4640   77.1230   -4.8200 C.3   112  ILE112      0.0023
     70  CD1      -16.6780   77.6020   -7.8060 C.3   112  ILE112      0.0001
     71  N        -18.0780   79.6380   -4.1670 N.am  113  GLY113     -0.1955
     72  CA       -19.2760   79.3800   -3.4060 C.3   113  GLY113      0.1869
     73  C        -20.4650   79.2400   -4.3080 C.2   113  GLY113      0.2309
     74  O        -20.3380   79.4830   -5.5120 O.2   113  GLY113     -0.2863
     75  N        -20.6780   75.3760    5.2430 N.3   163  ARG163     -0.1245
     76  CA       -20.0540   76.2860    6.1740 C.3   163  ARG163      0.1563
     77  C        -20.7630   76.2710    7.5070 C.2   163  ARG163      0.2260
     78  O        -20.1390   76.6830    8.5000 O.2   163  ARG163     -0.2867
     79  CB       -20.1170   77.7150    5.7160 C.3   163  ARG163      0.0307
     80  CG       -19.8850   77.9370    4.2240 C.3   163  ARG163      0.0489
     81  CD       -20.0620   79.3670    3.8070 C.3   163  ARG163      0.2205
     82  NE       -18.9630   79.7130    2.9230 N.pl3 163  ARG163     -0.0865
     83  CZ       -18.8980   79.2550    1.7070 C.cat 163  ARG163      0.5346
     84  NH1      -19.8700   78.4660    1.2520 N.pl3 163  ARG163      0.1354
     85  NH2      -17.8950   79.5650    0.9510 N.pl3 163  ARG163      0.1354
     86  N        -12.9420   76.2360    9.8240 N.3   168  GLU168     -0.1245
     87  CA       -11.5090   76.4580    9.5300 C.3   168  GLU168      0.1567
     88  C        -10.6820   75.1820    9.7830 C.2   168  GLU168      0.2260
     89  O         -9.8330   74.8340    8.9860 O.2   168  GLU168     -0.2867
     90  CB       -10.9640   77.6060   10.4040 C.3   168  GLU168      0.0388
     91  CG        -9.6920   78.2930    9.9020 C.3   168  GLU168      0.1160
     92  CD        -8.8110   78.9010   11.0250 C.2   168  GLU168      0.3649
     93  OE1       -9.2210   78.9200   12.2550 O.co2 168  GLU168     -0.2457
     94  OE2       -7.6720   79.3540   10.6600 O.co2 168  GLU168     -0.2457
     95  N        -13.9330   72.7470    6.3370 N.3   177  LEU177     -0.1231
     96  CA       -14.6210   73.0920    5.1240 C.3   177  LEU177      0.1693
     97  C        -13.9050   72.6230    3.8330 C.2   177  LEU177      0.2592
     98  O        -14.5660   72.1600    2.9150 O.2   177  LEU177     -0.2718
     99  CB       -14.7550   74.6110    5.0460 C.3   177  LEU177      0.0284
    100  CG       -15.9540   75.1660    4.2870 C.3   177  LEU177      0.0019
    101  CD1      -15.7430   76.5650    3.6890 C.3   177  LEU177      0.0001
    102  CD2      -16.3150   74.2810    3.2530 C.3   177  LEU177      0.0001
    103  N        -12.5730   72.7450    3.8010 N.am  178  ASP178     -0.1974
    104  CA       -11.8380   72.4770    2.5690 C.3   178  ASP178      0.1709
    105  C        -11.8390   71.0030    2.2760 C.2   178  ASP178      0.2293
    106  O        -12.1360   70.5870    1.1330 O.2   178  ASP178     -0.2864
    107  CB       -10.4090   73.0890    2.5210 C.3   178  ASP178      0.1436
    108  CG        -9.5710   72.7160    3.7120 C.2   178  ASP178      0.3671
    109  OD1      -10.0810   72.1200    4.7080 O.co2 178  ASP178     -0.2456
    110  OD2       -8.3710   72.9880    3.7430 O.co2 178  ASP178     -0.2456
    111  N        -15.5610   69.9600    1.3140 N.3   181  ALA181     -0.1231
    112  CA       -15.8420   70.3920   -0.0140 C.3   181  ALA181      0.1694
    113  C        -14.9940   69.6090   -0.9850 C.2   181  ALA181      0.2592
    114  O        -15.4990   69.0910   -1.9410 O.2   181  ALA181     -0.2718
    115  CB       -15.5330   71.9410   -0.1620 C.3   181  ALA181      0.0304
    116  N        -13.7090   69.4590   -0.7220 N.am  182  HIS182     -0.1976
    117  CA       -12.9090   68.8310   -1.7500 C.3   182  HIS182      0.1656
    118  C        -13.2200   67.3410   -1.9190 C.2   182  HIS182      0.2291
    119  O        -13.1640   66.8280   -3.0270 O.2   182  HIS182     -0.2864
    120  CB       -11.4240   69.0360   -1.5100 C.3   182  HIS182      0.0771
    121  CG       -10.9440   70.4230   -1.7630 C.ar  182  HIS182      0.0820
    122  ND1       -9.8790   70.9670   -1.0670 N.ar  182  HIS182     -0.2267
    123  CD2      -11.3250   71.3600   -2.6630 C.ar  182  HIS182      0.1154
    124  CE1       -9.6590   72.2040   -1.4980 C.ar  182  HIS182      0.1986
    125  NE2      -10.5260   72.4750   -2.4640 N.ar  182  HIS182     -0.2212
    126  N        -17.4820   67.4030   -3.4380 N.3   185  CYS185     -0.1221
    127  CA       -17.7130   68.0050   -4.7030 C.3   185  CYS185      0.1808
    128  C        -16.8620   67.2660   -5.8060 C.2   185  CYS185      0.2601
    129  O        -17.4080   66.6730   -6.7380 O.2   185  CYS185     -0.2717
    130  CB       -17.3550   69.4760   -4.6300 C.3   185  CYS185      0.0970
    131  SG       -17.8770   70.3650   -3.1510 S.3   185  CYS185     -0.0800
    132  N        -15.5400   67.2980   -5.6770 N.am  186  ILE186     -0.1979
    133  CA       -14.7120   66.6650   -6.6460 C.3   186  ILE186      0.1595
    134  C        -15.0730   65.1860   -6.8590 C.2   186  ILE186      0.2287
    135  O        -15.2050   64.7250   -8.0400 O.2   186  ILE186     -0.2864
    136  CB       -13.2610   66.8240   -6.2640 C.3   186  ILE186      0.0276
    137  CG1      -12.9180   68.2850   -6.1630 C.3   186  ILE186      0.0022
    138  CG2      -12.3780   66.1810   -7.2510 C.3   186  ILE186      0.0022
    139  CD1      -11.5450   68.5840   -5.5220 C.3   186  ILE186      0.0001
    140  N        -17.9820   65.0630   -9.0320 N.3   189  HIS189     -0.1241
    141  CA       -17.6730   65.6100  -10.3050 C.3   189  HIS189      0.1621
    142  C        -16.9880   64.5300  -11.1110 C.2   189  HIS189      0.2264
    143  O        -17.1870   64.4880  -12.3500 O.2   189  HIS189     -0.2867
    144  CB       -16.7860   66.8900  -10.2590 C.3   189  HIS189      0.0745
    145  CG       -17.5130   68.1450   -9.8800 C.ar  189  HIS189      0.0817
    146  ND1      -16.8530   69.3300   -9.6260 N.ar  189  HIS189     -0.2268
    147  CD2      -18.8350   68.3900   -9.6480 C.ar  189  HIS189      0.1154
    148  CE1      -17.7420   70.2530   -9.2670 C.ar  189  HIS189      0.1986
    149  NE2      -18.9410   69.6960   -9.2200 N.ar  189  HIS189     -0.2212
    150  N        -16.0990   70.9970  -12.1820 N.3   201  PRO201     -0.2102
    151  CA       -14.6560   70.8670  -12.4450 C.3   201  PRO201      0.1504
    152  C        -13.8980   70.0450  -11.3840 C.2   201  PRO201      0.2576
    153  O        -14.3590   69.9110  -10.1880 O.2   201  PRO201     -0.2718
    154  CB       -14.1540   72.3400  -12.5090 C.3   201  PRO201      0.0282
    155  CG       -15.4630   73.2300  -12.2060 C.3   201  PRO201      0.0208
    156  CD       -16.4450   72.2740  -11.5430 C.3   201  PRO201      0.0893
    157  N        -12.7800   69.4660  -11.8300 N.am  202  VAL202     -0.1966
    158  CA       -11.8790   68.7790  -10.9480 C.3   202  VAL202      0.1727
    159  C        -10.4710   69.4030  -10.8390 C.2   202  VAL202      0.2616
    160  O         -9.8040   69.1590   -9.8370 O.2   202  VAL202     -0.2715
    161  CB       -11.8170   67.2300  -11.2580 C.3   202  VAL202      0.0290
    162  CG1      -13.1100   66.7710  -11.9880 C.3   202  VAL202      0.0023
    163  CG2      -10.6720   66.9470  -12.0720 C.3   202  VAL202      0.0023
    164  N        -10.0100   70.1910  -11.8240 N.am  203  ASN203     -0.1958
    165  CA        -8.7140   70.8760  -11.7360 C.3   203  ASN203      0.1819
    166  C         -8.8610   72.0410  -10.7210 C.2   203  ASN203      0.2621
    167  O         -9.9380   72.6370  -10.5810 O.2   203  ASN203     -0.2715
    168  CB        -8.2990   71.4960  -13.0380 C.3   203  ASN203      0.1195
    169  CG        -7.9140   70.4980  -14.0580 C.2   203  ASN203      0.2630
    170  OD1       -6.9680   69.7290  -13.9020 O.2   203  ASN203     -0.2716
    171  ND2       -8.6140   70.5090  -15.1480 N.am  203  ASN203     -0.0877
    172  N         -7.7880   72.4130  -10.0660 N.am  204  CYS204     -0.1968
    173  CA        -7.8980   73.4590   -9.0740 C.3   204  CYS204      0.1712
    174  C         -8.3070   74.8130   -9.7870 C.2   204  CYS204      0.2296
    175  O         -9.2120   75.5860   -9.3530 O.2   204  CYS204     -0.2864
    176  CB        -6.5840   73.5440   -8.2710 C.3   204  CYS204      0.0983
    177  SG        -5.6010   71.9990   -7.9550 S.3   204  CYS204     -0.0798
    178  N        -12.0150   75.5030  -10.2980 N.3   207  CYS207     -0.1221
    179  CA       -12.9560   76.0540   -9.3740 C.3   207  CYS207      0.1808
    180  C        -12.4090   77.3800   -8.9120 C.2   207  CYS207      0.2601
    181  O        -13.1680   78.2900   -8.6050 O.2   207  CYS207     -0.2717
    182  CB       -13.1450   75.1340   -8.1800 C.3   207  CYS207      0.0970
    183  SG       -14.3620   73.8670   -8.5030 S.3   207  CYS207     -0.0800
    184  N        -11.0830   77.4720   -8.8790 N.am  208  HIS208     -0.1975
    185  CA       -10.4890   78.6020   -8.2260 C.3   208  HIS208      0.1656
    186  C         -9.8730   79.7080   -9.1710 C.2   208  HIS208      0.2291
    187  O         -9.5280   80.7840   -8.7010 O.2   208  HIS208     -0.2864
    188  CB        -9.4920   78.1550   -7.1020 C.3   208  HIS208      0.0771
    189  CG       -10.0500   77.2640   -6.0260 C.ar  208  HIS208      0.0820
    190  ND1      -10.7220   77.7430   -4.9240 N.ar  208  HIS208     -0.2267
    191  CD2       -9.9040   75.9250   -5.8050 C.ar  208  HIS208      0.1154
    192  CE1      -10.9660   76.7560   -4.0690 C.ar  208  HIS208      0.1986
    193  NE2      -10.5030   75.6320   -4.5930 N.ar  208  HIS208     -0.2212
@<TRIPOS>BOND
     1   171   169   am
     2   169   170    2
     3   169   168    1
     4   168   165    1
     5   154   151    1
     6   154   155    1
     7   151   150    1
     8   151   152    1
     9   143   142    2
    10   155   156    1
    11   150   156    1
    12   163   161    1
    13   162   161    1
    14   157   152   am
    15   157   158    1
    16   164   165    1
    17   164   159   am
    18   165   166    1
    19   152   153    2
    20   161   158    1
    21   142   141    1
    22   158   159    1
    23   159   160    2
    24    13    11   ar
    25   166   167    2
    26   166   172   am
    27    33    32    2
    28   141   144    1
    29   141   140    1
    30   178   179    1
    31   144   145    1
    32    11    12   ar
    33    11    10    1
    34    32    31    1
    35   172   173    1
    36   145   147   ar
    37   145   146   ar
    38   174   175    2
    39   174   173    1
    40     1     2    1
    41   147   149   ar
    42   146   148   ar
    43     5     2    1
    44    10     7    1
    45   179   180    1
    46   179   182    1
    47   148   149   ar
    48   186   187    2
    49   186   185    1
    50   173   176    1
    51   180   184   am
    52   180   181    2
    53   184   185    1
    54     2     3    1
    55    31    30    1
    56    31    34    1
    57     6     3   am
    58     6     7    1
    59   183   182    1
    60   176   177    1
    61   185   188    1
    62     3     4    2
    63    36    38   ar
    64    36    35   ar
    65     7     8    1
    66   135   134    2
    67    20    19    1
    68    70    68    1
    69    34    35    1
    70    38    39   ar
    71     9     8    2
    72    35    37   ar
    73     8    14   am
    74   138   136    1
    75   188   189    1
    76   134   133    1
    77    40    41    1
    78   129   128    2
    79    14    15    1
    80   133   136    1
    81   133   132    1
    82    19    21    1
    83    19    18    1
    84    39    37   ar
    85    68    67    1
    86   136   137    1
    87    41    42    1
    88    41    44    1
    89   137   139    1
    90   189   191   ar
    91   189   190   ar
    92    15    18    1
    93    15    16    1
    94   128   132   am
    95   128   127    1
    96   191   193   ar
    97    42    43    2
    98    67    69    1
    99    67    64    1
   100    74    73    2
   101    44    45    1
   102   190   192   ar
   103    57    56    2
   104   127   130    1
   105   127   126    1
   106   130   131    1
   107    64    63    1
   108    64    65    1
   109   193   192   ar
   110    16    22   am
   111    16    17    2
   112    46    45   ar
   113    46    48   ar
   114    45    47   ar
   115    73    72    1
   116    71    65   am
   117    71    72    1
   118    22    23    1
   119    56    63   am
   120    56    55    1
   121    29    27    1
   122    65    66    2
   123    48    49   ar
   124    54    55    1
   125    27    26    1
   126    47    49   ar
   127    47    50   ar
   128   119   118    2
   129    55    58    1
   130    25    24    2
   131    49    51   ar
   132    26    23    1
   133    26    28    1
   134    23    24    1
   135   123   125   ar
   136   123   121   ar
   137    50    52   ar
   138   125   124   ar
   139   114   113    2
   140   118   117    1
   141   121   120    1
   142   121   122   ar
   143   117   120    1
   144   117   116    1
   145    51    53   ar
   146    58    59    1
   147    52    53   ar
   148   124   122   ar
   149   113   116   am
   150   113   112    1
   151    59    60    1
   152   115   112    1
   153   112   111    1
   154    60    61   ar
   155    60    62   ar
   156    85    83    1
   157   106   105    2
   158    84    83    1
   159    83    82    2
   160   105   104    1
   161   107   104    1
   162   107   108    1
   163   104   103    1
   164    98    97    2
   165    82    81    1
   166   102   100    1
   167   101   100    1
   168   108   110   ar
   169   108   109   ar
   170   103    97   am
   171    81    80    1
   172    97    96    1
   173    80    79    1
   174   100    99    1
   175    99    96    1
   176    96    95    1
   177    75    76    1
   178    79    76    1
   179    76    77    1
   180    77    78    2
   181    89    88    2
   182    87    88    1
   183    87    86    1
   184    87    90    1
   185    91    90    1
   186    91    92    1
   187    94    92   ar
   188    92    93   ar
