@<TRIPOS>MOLECULE
tmp/1gwsA00.pdb
 224 214 0 0 0
SMALL
GASTEIGER

@<TRIPOS>ATOM
      1  N        -31.5360   97.5560    8.0020 N.3   310  VAL310     -0.1245
      2  CA       -31.0920   98.8950    7.6380 C.3   310  VAL310      0.1561
      3  C        -29.8390   98.8790    6.7260 C.2   310  VAL310      0.2260
      4  O        -29.7900   99.6430    5.7590 O.2   310  VAL310     -0.2867
      5  CB       -30.9760   99.8210    8.9080 C.3   310  VAL310      0.0252
      6  CG1      -30.7150  101.2670    8.5310 C.3   310  VAL310      0.0019
      7  CG2      -32.2960   99.8590    9.5940 C.3   310  VAL310      0.0019
      8  N        -30.3280   97.6950    3.2790 N.3   313  HIS313     -0.1226
      9  CA       -31.1620   98.6850    2.5950 C.3   313  HIS313      0.1752
     10  C        -30.2890   99.8520    2.2320 C.2   313  HIS313      0.2596
     11  O        -30.4170  100.4210    1.1580 O.2   313  HIS313     -0.2718
     12  CB       -32.3730   99.0900    3.4160 C.3   313  HIS313      0.0759
     13  CG       -33.4070   98.0120    3.5330 C.ar  313  HIS313      0.0818
     14  ND1      -34.4860   98.1120    4.3740 N.ar  313  HIS313     -0.2268
     15  CD2      -33.5150   96.7980    2.9400 C.ar  313  HIS313      0.1154
     16  CE1      -35.2330   97.0230    4.2910 C.ar  313  HIS313      0.1986
     17  NE2      -34.6690   96.2010    3.4280 N.ar  313  HIS313     -0.2212
     18  N        -29.3520  100.1730    3.1280 N.am  314  ASN314     -0.1974
     19  CA       -28.4420  101.2490    2.8070 C.3   314  ASN314      0.1688
     20  C        -27.6570  100.9560    1.5490 C.2   314  ASN314      0.2292
     21  O        -27.4540  101.8690    0.7440 O.2   314  ASN314     -0.2864
     22  CB       -27.5170  101.6550    3.9190 C.3   314  ASN314      0.1181
     23  CG       -28.2100  102.4970    4.9600 C.2   314  ASN314      0.2629
     24  OD1      -27.8490  102.3990    6.1140 O.2   314  ASN314     -0.2716
     25  ND2      -29.2510  103.3170    4.5680 N.am  314  ASN314     -0.0877
     26  N        -28.7250   99.5290   -1.0820 N.3   316  ARG316     -0.1231
     27  CA       -29.5750   99.5900   -2.3030 C.3   316  ARG316      0.1694
     28  C        -29.6990  101.0600   -2.6550 C.2   316  ARG316      0.2591
     29  O        -29.7880  101.4820   -3.7800 O.2   316  ARG316     -0.2718
     30  CB       -30.9500   98.8920   -2.1580 C.3   316  ARG316      0.0321
     31  CG       -31.0380   97.2710   -2.3360 C.3   316  ARG316      0.0489
     32  CD       -30.4590   96.5630   -3.6710 C.3   316  ARG316      0.2205
     33  NE       -31.3290   96.3500   -4.8860 N.pl3 316  ARG316     -0.0865
     34  CZ       -32.4910   96.9980   -5.1700 C.cat 316  ARG316      0.5346
     35  NH1      -33.0130   97.9170   -4.3320 N.pl3 316  ARG316      0.1354
     36  NH2      -33.1470   96.7160   -6.2900 N.pl3 316  ARG316      0.1354
     37  N        -29.5990  101.8440   -1.6350 N.am  317  VAL317     -0.1980
     38  CA       -29.6850  103.2720   -1.7520 C.3   317  VAL317      0.1595
     39  C        -28.4930  103.9520   -2.4660 C.2   317  VAL317      0.2287
     40  O        -28.5630  105.1340   -2.7770 O.2   317  VAL317     -0.2864
     41  CB       -30.0810  103.7670   -0.3220 C.3   317  VAL317      0.0276
     42  CG1      -29.3240  104.8750    0.2080 C.3   317  VAL317      0.0022
     43  CG2      -31.5770  103.9810   -0.2690 C.3   317  VAL317      0.0022
     44  N        -30.0290  105.4770   -9.1560 N.3   321  THR321     -0.1203
     45  CA       -31.3230  106.0570   -9.3880 C.3   321  THR321      0.1994
     46  C        -31.7280  106.5920   -8.0390 C.2   321  THR321      0.2618
     47  O        -32.4340  107.6060   -7.9320 O.2   321  THR321     -0.2717
     48  CB       -32.3230  105.0530   -9.9650 C.3   321  THR321      0.1784
     49  OG1      -32.1120  103.7650   -9.3840 O.3   321  THR321     -0.2211
     50  CG2      -32.0460  104.8170  -11.4700 C.3   321  THR321      0.0376
     51  N        -31.1770  105.9880   -6.9990 N.am  322  CYS322     -0.1969
     52  CA       -31.5090  106.4440   -5.6590 C.3   322  CYS322      0.1712
     53  C        -30.5680  107.4940   -5.1110 C.2   322  CYS322      0.2296
     54  O        -30.9200  108.2780   -4.2210 O.2   322  CYS322     -0.2864
     55  CB       -31.4090  105.2380   -4.7470 C.3   322  CYS322      0.0983
     56  SG       -32.3870  103.8260   -5.3090 S.3   322  CYS322     -0.0798
     57  N        -29.0610  110.1700   -5.9490 N.3   324  GLY324     -0.1210
     58  CA       -29.2180  111.5870   -6.1400 C.3   324  GLY324      0.1956
     59  C        -29.7670  112.0810   -4.8210 C.2   324  GLY324      0.2612
     60  O        -29.2260  112.9800   -4.1360 O.2   324  GLY324     -0.2717
     61  N        -30.8470  111.4610   -4.3990 N.am  325  CYS325     -0.1956
     62  CA       -31.4750  112.0060   -3.2730 C.3   325  CYS325      0.1843
     63  C        -30.7790  111.5370   -2.0200 C.2   325  CYS325      0.2625
     64  O        -30.5800  112.3210   -1.1050 O.2   325  CYS325     -0.2714
     65  CB       -32.9110  111.5800   -3.2390 C.3   325  CYS325      0.0997
     66  SG       -34.0830  112.5170   -4.2550 S.3   325  CYS325     -0.0797
     67  N        -30.3760  110.2660   -1.9980 N.am  326  HIS326     -0.1973
     68  CA       -29.9250  109.6010   -0.7480 C.3   326  HIS326      0.1656
     69  C        -28.5200  109.9900   -0.2920 C.2   326  HIS326      0.2291
     70  O        -28.2130  109.8810    0.8910 O.2   326  HIS326     -0.2864
     71  CB       -30.2200  108.0840   -0.7040 C.3   326  HIS326      0.0771
     72  CG       -31.6810  107.7640   -0.4710 C.ar  326  HIS326      0.0820
     73  ND1      -32.1880  107.3850    0.7540 N.ar  326  HIS326     -0.2267
     74  CD2      -32.7440  107.7430   -1.3220 C.ar  326  HIS326      0.1154
     75  CE1      -33.4950  107.1880    0.6590 C.ar  326  HIS326      0.1986
     76  NE2      -33.8630  107.3970   -0.5930 N.ar  326  HIS326     -0.2212
     77  N        -29.6410  113.8620    1.5370 N.3   329  ILE329     -0.1231
     78  CA       -30.5010  114.0550    2.6730 C.3   329  ILE329      0.1692
     79  C        -29.8940  113.4640    3.8940 C.2   329  ILE329      0.2592
     80  O        -28.9900  112.6610    3.8140 O.2   329  ILE329     -0.2718
     81  CB       -31.7910  113.3240    2.4520 C.3   329  ILE329      0.0266
     82  CG1      -31.5300  111.8560    2.4210 C.3   329  ILE329      0.0019
     83  CG2      -32.5050  113.8010    1.1050 C.3   329  ILE329      0.0020
     84  CD1      -32.6970  111.0710    1.8650 C.3   329  ILE329      0.0001
     85  N        -30.4090  113.8550    5.0520 N.am  330  LYS330     -0.1966
     86  CA       -30.0480  113.1250    6.2390 C.3   330  LYS330      0.1716
     87  C        -31.3090  112.3770    6.7240 C.2   330  LYS330      0.2496
     88  O        -32.4280  112.6710    6.3840 O.2   330  LYS330     -0.2727
     89  CB       -29.4840  114.0840    7.2630 C.3   330  LYS330      0.0311
     90  CG       -30.5900  114.8890    7.9430 C.3   330  LYS330      0.0038
     91  CD       -30.1240  116.2980    8.4100 C.3   330  LYS330      0.0206
     92  CE       -31.1970  116.9590    9.2710 C.3   330  LYS330      0.1093
     93  NZ       -30.7360  118.3060    9.6060 N.3   330  LYS330     -0.1314
     94  N        -31.1190  111.3260    7.4530 N.am  331  PRO331     -0.2490
     95  CA       -32.2490  110.6270    8.0910 C.3   331  PRO331      0.1619
     96  C        -32.9590  111.4310    9.2120 C.2   331  PRO331      0.2606
     97  O        -32.2910  112.1500   10.0210 O.2   331  PRO331     -0.2715
     98  CB       -31.6020  109.4510    8.7800 C.3   331  PRO331      0.0570
     99  CG       -30.1150  109.5140    8.4550 C.2   331  PRO331     -0.0077
    100  CD       -29.7990  110.7250    7.6930 C.2   331  PRO331      0.0634
    101  N        -34.2940  111.2550    9.2700 N.am  332  THR332     -0.1937
    102  CA       -35.1350  111.8320   10.3060 C.3   332  THR332      0.2028
    103  C        -35.1860  110.9600   11.5070 C.2   332  THR332      0.2642
    104  O        -35.4540  111.4490   12.5920 O.2   332  THR332     -0.2714
    105  CB       -36.5500  111.9870    9.8540 C.3   332  THR332      0.1808
    106  OG1      -37.0560  110.7210    9.3900 O.3   332  THR332     -0.2208
    107  CG2      -36.6520  113.0250    8.6280 C.3   332  THR332      0.0379
    108  N        -34.9360  109.6750   11.3470 N.am  333  LYS333     -0.1977
    109  CA       -35.0870  108.7570   12.4910 C.3   333  LYS333      0.1596
    110  C        -36.4140  109.0640   13.2130 C.2   333  LYS333      0.2287
    111  O        -36.5250  108.8340   14.4130 O.2   333  LYS333     -0.2864
    112  CB       -33.9130  108.8710   13.4980 C.3   333  LYS333      0.0298
    113  CG       -32.4800  108.4480   12.9490 C.3   333  LYS333      0.0038
    114  CD       -32.6000  107.4290   11.7930 C.3   333  LYS333      0.0206
    115  CE       -31.2220  106.7500   11.3910 C.3   333  LYS333      0.1093
    116  NZ       -30.4610  106.0510   12.4870 N.3   333  LYS333     -0.1314
    117  N        -41.0670  106.7150   10.5390 N.3   337  GLN337     -0.1245
    118  CA       -40.1290  105.8730    9.7960 C.3   337  GLN337      0.1566
    119  C        -39.8460  104.5470   10.5420 C.2   337  GLN337      0.2260
    120  O        -39.9070  103.4870    9.9460 O.2   337  GLN337     -0.2867
    121  CB       -38.8200  106.6120    9.5650 C.3   337  GLN337      0.0367
    122  CG       -38.8170  107.5160    8.3740 C.3   337  GLN337      0.0905
    123  CD       -38.9970  106.7420    7.0580 C.2   337  GLN337      0.2608
    124  OE1      -39.5590  107.2660    6.1120 O.2   337  GLN337     -0.2717
    125  NE2      -38.4680  105.5350    6.9930 N.am  337  GLN337     -0.0878
    126  N        -38.3990  115.7410  -11.5370 N.3   413  VAL413     -0.1245
    127  CA       -39.1690  114.8790  -10.6080 C.3   413  VAL413      0.1561
    128  C        -39.6990  113.6260  -11.3000 C.2   413  VAL413      0.2260
    129  O        -39.5500  112.5290  -10.7340 O.2   413  VAL413     -0.2867
    130  CB       -40.2960  115.6190   -9.7670 C.3   413  VAL413      0.0252
    131  CG1      -40.8480  114.6880   -8.6430 C.3   413  VAL413      0.0019
    132  CG2      -39.7780  116.9340   -9.0520 C.3   413  VAL413      0.0019
    133  N        -37.0800  111.1460  -11.6840 N.3   416  LEU416     -0.1245
    134  CA       -36.6950  110.5380  -10.3960 C.3   416  LEU416      0.1561
    135  C        -37.6650  109.4040  -10.2140 C.2   416  LEU416      0.2260
    136  O        -37.2710  108.2570  -10.0630 O.2   416  LEU416     -0.2867
    137  CB       -36.7660  111.5760   -9.2740 C.3   416  LEU416      0.0270
    138  CG       -35.6570  112.5730   -9.5720 C.3   416  LEU416      0.0019
    139  CD1      -35.6630  113.8410   -8.7690 C.3   416  LEU416      0.0001
    140  CD2      -34.2730  111.8460   -9.5470 C.3   416  LEU416      0.0001
    141  N        -37.1650  105.3300  -10.1320 N.3   420  ILE420     -0.1245
    142  CA       -37.4760  104.4590   -9.0030 C.3   420  ILE420      0.1561
    143  C        -38.2550  103.2790   -9.5690 C.2   420  ILE420      0.2260
    144  O        -38.1020  102.1410   -9.1240 O.2   420  ILE420     -0.2867
    145  CB       -38.2600  105.1500   -7.9700 C.3   420  ILE420      0.0252
    146  CG1      -37.3370  105.9720   -7.0520 C.3   420  ILE420      0.0019
    147  CG2      -39.0010  104.1480   -7.1660 C.3   420  ILE420      0.0019
    148  CD1      -38.0840  107.1050   -6.3010 C.3   420  ILE420      0.0001
    149  N        -39.4330   99.6710   -7.5880 N.3   423  ASP423     -0.1239
    150  CA       -38.7430   99.3490   -6.3610 C.3   423  ASP423      0.1674
    151  C        -39.6240   99.4630   -5.0690 C.2   423  ASP423      0.2266
    152  O        -40.2170  100.5030   -4.7400 O.2   423  ASP423     -0.2867
    153  CB       -37.4770  100.1760   -6.1920 C.3   423  ASP423      0.1410
    154  CG       -36.7660   99.8700   -4.8640 C.2   423  ASP423      0.3668
    155  OD1      -35.5820   99.4310   -4.9080 O.co2 423  ASP423     -0.2456
    156  OD2      -37.3370   99.9950   -3.7460 O.co2 423  ASP423     -0.2456
    157  N        -38.6650   99.0190   -1.8110 N.3   425  LEU425     -0.1231
    158  CA       -38.0940   99.7260   -0.6360 C.3   425  LEU425      0.1693
    159  C        -38.5740  101.1530   -0.6970 C.2   425  LEU425      0.2591
    160  O        -39.1300  101.7000    0.2460 O.2   425  LEU425     -0.2718
    161  CB       -36.5830   99.7520   -0.8020 C.3   425  LEU425      0.0284
    162  CG       -35.5380   99.4030    0.2380 C.3   425  LEU425      0.0019
    163  CD1      -36.0710   98.6890    1.4610 C.3   425  LEU425      0.0001
    164  CD2      -34.2370   98.7720   -0.3220 C.3   425  LEU425      0.0001
    165  N        -38.4660  101.7410   -1.8840 N.am  426  ALA426     -0.1980
    166  CA       -38.9090  103.1080   -2.0370 C.3   426  ALA426      0.1597
    167  C        -40.4200  103.2860   -1.8920 C.2   426  ALA426      0.2287
    168  O        -40.8800  104.2940   -1.3360 O.2   426  ALA426     -0.2864
    169  CB       -38.4540  103.6180   -3.3550 C.3   426  ALA426      0.0319
    170  N        -41.1520  103.0010    1.9600 N.3   429  PHE429     -0.1227
    171  CA       -40.4390  103.7780    2.9330 C.3   429  PHE429      0.1736
    172  C        -40.6740  105.2760    2.6470 C.2   429  PHE429      0.2595
    173  O        -40.4650  106.1210    3.5710 O.2   429  PHE429     -0.2718
    174  CB       -38.9420  103.3620    3.0260 C.3   429  PHE429      0.0547
    175  CG       -38.6830  102.1190    3.9070 C.ar  429  PHE429     -0.0202
    176  CD1      -38.4020  102.2420    5.2930 C.ar  429  PHE429     -0.0042
    177  CD2      -38.7390  100.8790    3.3810 C.ar  429  PHE429     -0.0042
    178  CE1      -38.1350  101.1310    6.1230 C.ar  429  PHE429     -0.0003
    179  CE2      -38.5130   99.7570    4.1910 C.ar  429  PHE429     -0.0003
    180  CZ       -38.1730   99.8840    5.5660 C.ar  429  PHE429     -0.0000
    181  N        -41.1900  105.5700    1.4330 N.am  430  HIS430     -0.1975
    182  CA       -41.5330  106.9610    0.9740 C.3   430  HIS430      0.1656
    183  C        -43.0040  107.2200    1.4610 C.2   430  HIS430      0.2291
    184  O        -44.0440  107.1640    0.7210 O.2   430  HIS430     -0.2864
    185  CB       -41.2140  107.1910   -0.5770 C.3   430  HIS430      0.0771
    186  CG       -39.7340  107.1410   -0.9020 C.ar  430  HIS430      0.0820
    187  ND1      -39.2430  106.9470   -2.1680 N.ar  430  HIS430     -0.2267
    188  CD2      -38.6320  107.1720   -0.0910 C.ar  430  HIS430      0.1154
    189  CE1      -37.9140  106.8720   -2.1440 C.ar  430  HIS430      0.1986
    190  NE2      -37.5110  107.0340   -0.8960 N.ar  430  HIS430     -0.2212
    191  N        -42.7060  113.0820    0.6070 N.3   435  THR435     -0.1203
    192  CA       -41.3890  112.5060    0.8540 C.3   435  THR435      0.1994
    193  C        -40.4220  112.7530   -0.3120 C.2   435  THR435      0.2617
    194  O        -39.3050  113.1990   -0.0970 O.2   435  THR435     -0.2717
    195  CB       -41.4500  110.9820    1.1320 C.3   435  THR435      0.1784
    196  OG1      -42.2980  110.7140    2.2340 O.3   435  THR435     -0.2211
    197  CG2      -40.1880  110.4940    1.6530 C.3   435  THR435      0.0376
    198  N        -40.8350  112.4580   -1.5300 N.am  436  LEU436     -0.1979
    199  CA       -39.9350  112.6230   -2.6380 C.3   436  LEU436      0.1596
    200  C        -39.4740  114.0800   -2.7280 C.2   436  LEU436      0.2287
    201  O        -38.3280  114.3650   -3.0130 O.2   436  LEU436     -0.2864
    202  CB       -40.5750  112.1480   -3.9200 C.3   436  LEU436      0.0297
    203  CG       -40.1900  110.8080   -4.5550 C.3   436  LEU436      0.0022
    204  CD1      -39.6020  109.7840   -3.6280 C.3   436  LEU436      0.0001
    205  CD2      -41.3000  110.2600   -5.4990 C.3   436  LEU436      0.0001
    206  N        -38.8190  116.0540   -0.3740 N.3   438  GLN438     -0.1231
    207  CA       -37.8110  116.2810    0.6210 C.3   438  GLN438      0.1698
    208  C        -36.4590  115.8200    0.1470 C.2   438  GLN438      0.2593
    209  O        -35.5130  116.0520    0.7810 O.2   438  GLN438     -0.2718
    210  CB       -38.2260  115.6360    1.9690 C.3   438  GLN438      0.0381
    211  CG       -39.5310  116.1980    2.5710 C.3   438  GLN438      0.0905
    212  CD       -39.8310  115.5430    3.9570 C.2   438  GLN438      0.2608
    213  OE1      -39.9510  116.2310    4.9720 O.2   438  GLN438     -0.2717
    214  NE2      -39.9470  114.2120    3.9710 N.am  438  GLN438     -0.0878
    215  N        -36.3480  115.1820   -1.0110 N.am  439  GLY439     -0.1942
    216  CA       -35.0310  114.8640   -1.5020 C.3   439  GLY439      0.2014
    217  C        -34.2900  116.1590   -1.8400 C.2   439  GLY439      0.2639
    218  O        -33.1150  116.1720   -1.9000 O.2   439  GLY439     -0.2714
    219  N        -34.9720  117.2440   -2.1110 N.am  440  CYS440     -0.1967
    220  CA       -34.2980  118.4740   -2.3530 C.3   440  CYS440      0.1712
    221  C        -34.8280  119.4750   -1.3440 C.2   440  CYS440      0.2296
    222  O        -34.0680  120.3200   -0.8600 O.2   440  CYS440     -0.2864
    223  CB       -34.5250  118.9600   -3.7990 C.3   440  CYS440      0.0983
    224  SG       -34.0330  117.7240   -5.0530 S.3   440  CYS440     -0.0798
@<TRIPOS>BOND
     1   133   134    1
     2   126   127    1
     3    50    48    1
     4   128   129    2
     5   128   127    1
     6   127   130    1
     7   134   135    1
     8   134   137    1
     9   135   136    2
    10   141   142    1
    11    48    45    1
    12    48    49    1
    13   130   132    1
    14   130   131    1
    15   138   140    1
    16   138   137    1
    17   138   139    1
    18   143   144    2
    19   143   142    1
    20    45    44    1
    21    45    46    1
    22   142   145    1
    23    46    47    2
    24    46    51   am
    25   145   147    1
    26   145   146    1
    27   149   150    1
    28   146   148    1
    29    51    52    1
    30   150   153    1
    31   150   151    1
    32    36    34    1
    33   153   154    1
    34    58    57    1
    35    58    59    1
    36    52    53    1
    37    52    55    1
    38   205   203    1
    39    56    55    1
    40    34    33    2
    41    34    35    1
    42    53    54    2
    43   151   152    2
    44   224   223    1
    45   155   154   ar
    46    33    32    1
    47   154   156   ar
    48    59    61   am
    49    59    60    2
    50   203   202    1
    51   203   204    1
    52    61    62    1
    53    66    65    1
    54   202   199    1
    55   223   220    1
    56    29    28    2
    57    32    31    1
    58   169   166    1
    59    62    65    1
    60    62    63    1
    61   201   200    2
    62    40    39    2
    63   200   199    1
    64    28    27    1
    65    28    37   am
    66   199   198    1
    67    39    38    1
    68   220   219    1
    69   220   221    1
    70    31    30    1
    71    27    30    1
    72    27    26    1
    73   187   189   ar
    74   187   186   ar
    75   189   190   ar
    76   219   217   am
    77   166   167    1
    78   166   165    1
    79    63    67   am
    80    63    64    2
    81    67    68    1
    82   218   217    2
    83   167   168    2
    84   165   159   am
    85   217   216    1
    86   157   158    1
    87    38    37    1
    88    38    41    1
    89   198   193   am
    90   216   215    1
    91   221   222    2
    92    74    76   ar
    93    74    72   ar
    94   215   208   am
    95   186   185    1
    96   186   188   ar
    97   190   188   ar
    98   161   158    1
    99   161   162    1
   100    68    71    1
   101    68    69    1
   102    71    72    1
   103   159   158    1
   104   159   160    2
   105    76    75   ar
   106   185   182    1
   107    72    73   ar
   108   206   207    1
   109    41    43    1
   110    41    42    1
   111   164   162    1
   112   193   194    2
   113   193   192    1
   114    69    70    2
   115   208   207    1
   116   208   209    2
   117   162   163    1
   118   191   192    1
   119   207   210    1
   120    75    73   ar
   121   184   183    2
   122    21    20    2
   123   192   195    1
   124   182   181    1
   125   182   183    1
   126    83    81    1
   127   195   197    1
   128   195   196    1
   129    11    10    2
   130   181   172   am
   131    77    78    1
   132    20    19    1
   133    84    82    1
   134   170   171    1
   135   210   211    1
   136    10     9    1
   137    10    18   am
   138    82    81    1
   139    81    78    1
   140   211   212    1
   141     9     8    1
   142     9    12    1
   143   172   171    1
   144   172   173    2
   145    78    79    1
   146    19    18    1
   147    19    22    1
   148   171   174    1
   149    15    17   ar
   150    15    13   ar
   151   174   175    1
   152   177   175   ar
   153   177   179   ar
   154    12    13    1
   155    17    16   ar
   156    13    14   ar
   157    80    79    2
   158    79    85   am
   159   175   176   ar
   160    22    23    1
   161   212   214   am
   162   212   213    2
   163   179   180   ar
   164    16    14   ar
   165    25    23   am
   166    23    24    2
   167    85    86    1
   168   176   178   ar
   169   180   178   ar
   170     4     3    2
   171   124   123    2
   172    86    87    1
   173    86    89    1
   174    88    87    2
   175    87    94   am
   176     3     2    1
   177   125   123   am
   178   123   122    1
   179    89    90    1
   180    94   100    1
   181    94    95    1
   182     2     1    1
   183     2     5    1
   184   100    99    2
   185    90    91    1
   186    95    98    1
   187    95    96    1
   188   122   121    1
   189    91    92    1
   190    99    98    1
   191     6     5    1
   192   107   105    1
   193     5     7    1
   194    96   101   am
   195    96    97    2
   196   101   102    1
   197    92    93    1
   198   106   105    1
   199   121   118    1
   200   118   117    1
   201   118   119    1
   202   105   102    1
   203   120   119    2
   204   102   103    1
   205   108   103   am
   206   108   109    1
   207   115   114    1
   208   115   116    1
   209   103   104    2
   210   114   113    1
   211   109   110    1
   212   109   112    1
   213   113   112    1
   214   110   111    2
