@<TRIPOS>MOLECULE
tmp/1gwsA05.pdb
 203 203 0 0 0
SMALL
GASTEIGER

@<TRIPOS>ATOM
      1  N        -34.7120  130.4390  -10.8800 N.3   395  ILE395     -0.1231
      2  CA       -33.9340  130.7070   -9.7210 C.3   395  ILE395      0.1692
      3  C        -33.0540  131.8930  -10.0330 C.2   395  ILE395      0.2593
      4  O        -32.0090  131.8140  -10.7810 O.2   395  ILE395     -0.2718
      5  CB       -33.1190  129.4510   -9.3670 C.3   395  ILE395      0.0266
      6  CG1      -33.9790  128.1950   -9.5160 C.3   395  ILE395      0.0019
      7  CG2      -32.5940  129.4980   -7.9170 C.3   395  ILE395      0.0020
      8  CD1      -33.3910  126.9650   -8.8820 C.3   395  ILE395      0.0001
      9  N        -33.4690  133.0390   -9.5190 N.am  396  GLY396     -0.1942
     10  CA       -32.6820  134.1920   -9.8820 C.3   396  GLY396      0.2014
     11  C        -32.4330  135.1770   -8.7880 C.2   396  GLY396      0.2640
     12  O        -32.0430  136.2800   -9.0820 O.2   396  GLY396     -0.2714
     13  N        -32.6190  134.7960   -7.5340 N.am  397  SER397     -0.1935
     14  CA       -32.6320  135.8330   -6.5000 C.3   397  SER397      0.2055
     15  C        -31.2920  136.4110   -6.1880 C.2   397  SER397      0.2643
     16  O        -31.1820  137.3390   -5.4160 O.2   397  SER397     -0.2714
     17  CB       -33.3010  135.3420   -5.2110 C.3   397  SER397      0.2130
     18  OG       -32.4050  134.5960   -4.4500 O.3   397  SER397     -0.2179
     19  N        -30.2450  135.8280   -6.7240 N.am  398  ILE398     -0.1963
     20  CA       -28.9410  136.3950   -6.5170 C.3   398  ILE398      0.1727
     21  C        -28.3310  136.4850   -7.8820 C.2   398  ILE398      0.2616
     22  O        -27.1430  136.4430   -8.0060 O.2   398  ILE398     -0.2715
     23  CB       -28.0670  135.4880   -5.6020 C.3   398  ILE398      0.0290
     24  CG1      -28.0780  134.0420   -6.1150 C.3   398  ILE398      0.0022
     25  CG2      -28.5300  135.5000   -4.1510 C.3   398  ILE398      0.0023
     26  CD1      -26.9160  133.2660   -5.5690 C.3   398  ILE398      0.0001
     27  N        -29.1120  136.5780   -8.9360 N.am  399  ALA399     -0.1963
     28  CA       -28.5020  136.6680  -10.2530 C.3   399  ALA399      0.1728
     29  C        -27.5830  137.8680  -10.2890 C.2   399  ALA399      0.2616
     30  O        -27.8320  138.9050   -9.6070 O.2   399  ALA399     -0.2715
     31  CB       -29.5120  136.7580  -11.3030 C.3   399  ALA399      0.0334
     32  N        -26.4940  137.7340  -11.0300 N.am  400  LYS400     -0.1963
     33  CA       -25.5590  138.8280  -11.1960 C.3   400  LYS400      0.1728
     34  C        -24.6010  138.5640  -12.3360 C.2   400  LYS400      0.2616
     35  O        -24.7790  139.0430  -13.4910 O.2   400  LYS400     -0.2715
     36  CB       -24.7770  139.0700   -9.8890 C.3   400  LYS400      0.0311
     37  CG       -23.9570  140.3590   -9.9270 C.3   400  LYS400      0.0038
     38  CD       -23.0590  140.5130   -8.6930 C.3   400  LYS400      0.0206
     39  CE       -23.8610  140.4920   -7.3340 C.3   400  LYS400      0.1093
     40  NZ       -23.1140  140.6630   -5.9930 N.3   400  LYS400     -0.1314
     41  N        -23.5800  137.7790  -12.0290 N.am  401  GLU401     -0.1963
     42  CA       -22.5770  137.4530  -13.0160 C.3   401  GLU401      0.1733
     43  C        -23.2150  136.7510  -14.2220 C.2   401  GLU401      0.2616
     44  O        -22.7430  136.8800  -15.3360 O.2   401  GLU401     -0.2715
     45  CB       -21.4020  136.6680  -12.4050 C.3   401  GLU401      0.0429
     46  CG       -20.7980  137.2210  -11.0890 C.3   401  GLU401      0.1163
     47  CD       -20.1060  138.5900  -11.1750 C.2   401  GLU401      0.3649
     48  OE1      -19.3020  138.8310  -12.0920 O.co2 401  GLU401     -0.2457
     49  OE2      -20.3360  139.4380  -10.2980 O.co2 401  GLU401     -0.2457
     50  N        -24.3110  136.0380  -13.9950 N.am  402  TYR402     -0.1960
     51  CA       -25.0190  135.3310  -15.0600 C.3   402  TYR402      0.1771
     52  C        -26.4900  135.7140  -15.0120 C.2   402  TYR402      0.2623
     53  O        -26.9190  136.3850  -14.0760 O.2   402  TYR402     -0.2715
     54  CB       -24.9500  133.8240  -14.8330 C.3   402  TYR402      0.0574
     55  CG       -23.5940  133.2190  -15.0320 C.ar  402  TYR402     -0.0198
     56  CD1      -22.7140  133.0830  -13.9600 C.ar  402  TYR402     -0.0009
     57  CD2      -23.1780  132.7860  -16.2830 C.ar  402  TYR402     -0.0009
     58  CE1      -21.4930  132.5500  -14.1150 C.ar  402  TYR402      0.0417
     59  CE2      -21.9230  132.2440  -16.4610 C.ar  402  TYR402      0.0417
     60  CZ       -21.0950  132.1160  -15.3700 C.ar  402  TYR402      0.1957
     61  OH       -19.8380  131.5800  -15.4990 O.3   402  TYR402     -0.2866
     62  N        -27.2810  135.2650  -15.9830 N.am  403  GLN403     -0.1918
     63  CA       -28.7260  135.4150  -15.8110 C.3   403  GLN403      0.1934
     64  C        -29.2570  134.3130  -14.8950 C.2   403  GLN403      0.2501
     65  O        -28.5020  133.3780  -14.5240 O.2   403  GLN403     -0.2726
     66  CB       -29.5010  135.5780  -17.1410 C.2   403  GLN403      0.0090
     67  CG       -29.3570  134.5010  -18.2020 C.2   403  GLN403      0.0587
     68  CD       -29.9250  134.8760  -19.6250 C.2   403  GLN403      0.2841
     69  OE1      -29.7180  135.9820  -20.1360 O.2   403  GLN403     -0.2667
     70  NE2      -30.6070  133.9180  -20.2510 N.am  403  GLN403     -0.0837
     71  N        -30.5190  134.4450  -14.4680 N.am  404  PRO404     -0.2713
     72  CA       -31.1800  133.4920  -13.5720 C.3   404  PRO404      0.1536
     73  C        -31.2620  132.0910  -14.1700 C.2   404  PRO404      0.2599
     74  O        -31.2280  131.9230  -15.3990 O.2   404  PRO404     -0.2715
     75  CB       -32.6020  134.0460  -13.4730 C.3   404  PRO404      0.0310
     76  CG       -32.4950  135.3970  -13.7320 C.3   404  PRO404      0.0237
     77  CD       -31.4410  135.5300  -14.8400 C.3   404  PRO404      0.0939
     78  N        -31.4010  131.0780  -13.3100 N.am  405  SER405     -0.1950
     79  CA       -31.3820  129.7320  -13.8520 C.3   405  SER405      0.1924
     80  C        -32.7720  129.1610  -14.0660 C.2   405  SER405      0.2314
     81  O        -33.6190  129.1800  -13.1960 O.2   405  SER405     -0.2863
     82  CB       -30.4800  128.8390  -13.0210 C.3   405  SER405      0.2116
     83  OG       -30.5590  127.4710  -13.3840 O.3   405  SER405     -0.2180
     84  N        -34.9220  126.0140  -14.6050 N.3   407  PHE407     -0.1241
     85  CA       -34.6230  124.6390  -14.2680 C.3   407  PHE407      0.1605
     86  C        -35.8760  123.7840  -14.4080 C.2   407  PHE407      0.2264
     87  O        -36.9780  124.2030  -13.9920 O.2   407  PHE407     -0.2867
     88  CB       -33.9770  124.7350  -12.8870 C.3   407  PHE407      0.0534
     89  CG       -34.3730  123.7310  -11.9130 C.ar  407  PHE407     -0.0203
     90  CD1      -33.7470  122.4760  -11.8590 C.ar  407  PHE407     -0.0042
     91  CD2      -35.1970  124.0940  -10.9250 C.ar  407  PHE407     -0.0042
     92  CE1      -34.0490  121.5480  -10.8350 C.ar  407  PHE407     -0.0003
     93  CE2      -35.5180  123.1690   -9.8440 C.ar  407  PHE407     -0.0003
     94  CZ       -34.9400  121.8920   -9.8200 C.ar  407  PHE407     -0.0000
     95  N        -25.6430  130.4200   -2.8500 N.3   472  LYS472     -0.1245
     96  CA       -25.0110  129.9970   -4.0880 C.3   472  LYS472      0.1561
     97  C        -24.3860  128.6290   -3.9450 C.2   472  LYS472      0.2260
     98  O        -24.4320  127.7710   -4.8390 O.2   472  LYS472     -0.2867
     99  CB       -23.8430  130.9330   -4.3940 C.3   472  LYS472      0.0271
    100  CG       -23.0520  130.5420   -5.7230 C.3   472  LYS472      0.0035
    101  CD       -21.8560  131.4170   -5.9150 C.3   472  LYS472      0.0206
    102  CE       -20.9720  130.9830   -7.0770 C.3   472  LYS472      0.1093
    103  NZ       -20.1520  129.8580   -6.5710 N.3   472  LYS472     -0.1314
    104  N        -27.1020  125.8670   -3.8550 N.3   475  TYR475     -0.1227
    105  CA       -27.5810  125.4770   -5.2030 C.3   475  TYR475      0.1736
    106  C        -26.4980  124.6220   -5.8740 C.2   475  TYR475      0.2595
    107  O        -26.7500  123.5250   -6.3320 O.2   475  TYR475     -0.2718
    108  CB       -27.8740  126.7000   -6.0470 C.3   475  TYR475      0.0548
    109  CG       -29.0790  127.5130   -5.6270 C.ar  475  TYR475     -0.0200
    110  CD1      -30.3000  126.9230   -5.4410 C.ar  475  TYR475     -0.0009
    111  CD2      -28.9910  128.8900   -5.4310 C.ar  475  TYR475     -0.0009
    112  CE1      -31.4090  127.6770   -5.1280 C.ar  475  TYR475      0.0417
    113  CE2      -30.1260  129.6690   -5.0770 C.ar  475  TYR475      0.0417
    114  CZ       -31.3390  129.0450   -4.9270 C.ar  475  TYR475      0.1957
    115  OH       -32.5290  129.7460   -4.5410 O.3   475  TYR475     -0.2866
    116  N        -25.2690  125.0940   -5.8700 N.am  476  HIS476     -0.1975
    117  CA       -24.2450  124.3950   -6.5890 C.3   476  HIS476      0.1656
    118  C        -24.0230  123.0480   -5.9090 C.2   476  HIS476      0.2291
    119  O        -23.8930  122.0150   -6.5700 O.2   476  HIS476     -0.2864
    120  CB       -22.9760  125.2430   -6.6760 C.3   476  HIS476      0.0771
    121  CG       -22.9860  126.2550   -7.8090 C.ar  476  HIS476      0.0820
    122  ND1      -21.8300  126.8390   -8.3040 N.ar  476  HIS476     -0.2267
    123  CD2      -23.9980  126.7510   -8.5630 C.ar  476  HIS476      0.1154
    124  CE1      -22.1310  127.6730   -9.2710 C.ar  476  HIS476      0.1986
    125  NE2      -23.4420  127.6420   -9.4470 N.ar  476  HIS476     -0.2212
    126  N        -27.4190  120.9270   -6.8760 N.3   479  CYS479     -0.1221
    127  CA       -27.5520  120.6110   -8.2740 C.3   479  CYS479      0.1808
    128  C        -26.3860  119.7270   -8.7720 C.2   479  CYS479      0.2601
    129  O        -26.5700  118.6670   -9.4460 O.2   479  CYS479     -0.2717
    130  CB       -27.6750  121.9250   -9.1070 C.3   479  CYS479      0.0970
    131  SG       -28.8360  123.2390   -8.4870 S.3   479  CYS479     -0.0800
    132  N        -25.1690  120.1200   -8.4650 N.am  480  MET480     -0.1979
    133  CA       -24.0630  119.3940   -9.1250 C.3   480  MET480      0.1605
    134  C        -23.8650  118.0570   -8.4610 C.2   480  MET480      0.2287
    135  O        -23.5390  117.0990   -9.1440 O.2   480  MET480     -0.2864
    136  CB       -22.7460  120.1980   -9.1180 C.3   480  MET480      0.0413
    137  CG       -22.8700  121.6860   -9.5270 C.3   480  MET480      0.0598
    138  SD       -21.2750  122.5800   -9.6490 S.3   480  MET480     -0.1393
    139  CE       -20.3440  121.4820   -9.6640 C.3   480  MET480      0.0692
    140  N        -26.3870  115.4510   -9.9440 N.3   483  HIS483     -0.1241
    141  CA       -25.9010  115.0670  -11.2850 C.3   483  HIS483      0.1621
    142  C        -24.7490  114.0720  -11.2570 C.2   483  HIS483      0.2264
    143  O        -24.8280  113.1060  -11.9890 O.2   483  HIS483     -0.2867
    144  CB       -25.5740  116.2850  -12.1200 C.3   483  HIS483      0.0745
    145  CG       -26.7920  117.0950  -12.4660 C.ar  483  HIS483      0.0817
    146  ND1      -26.7270  118.3890  -12.8910 N.ar  483  HIS483     -0.2268
    147  CD2      -28.1130  116.7870  -12.3960 C.ar  483  HIS483      0.1154
    148  CE1      -27.9510  118.8440  -13.0990 C.ar  483  HIS483      0.1986
    149  NE2      -28.8120  117.8870  -12.8110 N.ar  483  HIS483     -0.2212
    150  N        -26.7480  118.6660  -18.0030 N.3   491  PRO491     -0.2102
    151  CA       -25.5980  119.5260  -18.2950 C.3   491  PRO491      0.1504
    152  C        -24.3900  119.0210  -17.5750 C.2   491  PRO491      0.2576
    153  O        -24.5230  118.1900  -16.7230 O.2   491  PRO491     -0.2718
    154  CB       -26.0020  120.8440  -17.6410 C.3   491  PRO491      0.0282
    155  CG       -26.8980  120.4260  -16.5910 C.3   491  PRO491      0.0208
    156  CD       -27.7750  119.4150  -17.3000 C.3   491  PRO491      0.0893
    157  N        -23.2340  119.5450  -17.8630 N.am  492  ALA492     -0.1966
    158  CA       -22.0590  119.1060  -17.1890 C.3   492  ALA492      0.1728
    159  C        -21.7290  120.2490  -16.2350 C.2   492  ALA492      0.2616
    160  O        -21.8340  121.4160  -16.6130 O.2   492  ALA492     -0.2715
    161  CB       -20.9400  118.9100  -18.1810 C.3   492  ALA492      0.0334
    162  N        -21.2960  119.8900  -15.0370 N.am  493  ASN493     -0.1958
    163  CA       -20.8240  120.8260  -14.0610 C.3   493  ASN493      0.1819
    164  C        -19.8070  121.7960  -14.5450 C.2   493  ASN493      0.2622
    165  O        -19.7040  122.8630  -13.9740 O.2   493  ASN493     -0.2715
    166  CB       -20.3450  120.0990  -12.8200 C.3   493  ASN493      0.1195
    167  CG       -21.4730  119.4120  -12.1590 C.2   493  ASN493      0.2630
    168  OD1      -22.5420  119.9970  -12.0680 O.2   493  ASN493     -0.2716
    169  ND2      -21.2950  118.1640  -11.7580 N.am  493  ASN493     -0.0877
    170  N        -19.1160  121.5100  -15.6440 N.am  494  THR494     -0.1937
    171  CA       -18.2490  122.5330  -16.1560 C.3   494  THR494      0.2028
    172  C        -18.9910  123.4610  -17.0680 C.2   494  THR494      0.2642
    173  O        -18.4660  124.5260  -17.4130 O.2   494  THR494     -0.2714
    174  CB       -17.0200  121.9430  -16.8290 C.3   494  THR494      0.1808
    175  OG1      -17.3880  120.7520  -17.5440 O.3   494  THR494     -0.2208
    176  CG2      -16.1040  121.3980  -15.7070 C.3   494  THR494      0.0379
    177  N        -20.2200  123.0940  -17.4350 N.am  495  ALA495     -0.1963
    178  CA       -20.9730  123.9490  -18.4260 C.3   495  ALA495      0.1728
    179  C        -21.8510  125.0110  -17.7970 C.2   495  ALA495      0.2616
    180  O        -23.0520  124.9020  -17.8200 O.2   495  ALA495     -0.2715
    181  CB       -21.8030  123.1170  -19.4270 C.3   495  ALA495      0.0334
    182  N        -21.2170  126.0260  -17.2460 N.am  496  CYS496     -0.1968
    183  CA       -21.8620  127.1520  -16.6410 C.3   496  CYS496      0.1712
    184  C        -23.1630  127.5660  -17.3630 C.2   496  CYS496      0.2296
    185  O        -24.2680  127.4510  -16.7900 O.2   496  CYS496     -0.2864
    186  CB       -20.8130  128.2550  -16.5970 C.3   496  CYS496      0.0983
    187  SG       -19.2150  127.6500  -15.8990 S.3   496  CYS496     -0.0798
    188  N        -26.8320  125.8530  -17.3820 N.3   499  CYS499     -0.1221
    189  CA       -27.7690  125.9970  -16.2470 C.3   499  CYS499      0.1808
    190  C        -28.1390  127.4700  -16.0510 C.2   499  CYS499      0.2601
    191  O        -29.2130  127.7670  -15.5000 O.2   499  CYS499     -0.2717
    192  CB       -27.1170  125.5860  -14.9160 C.3   499  CYS499      0.0970
    193  SG       -27.1430  123.8910  -14.3690 S.3   499  CYS499     -0.0800
    194  N        -27.1950  128.3710  -16.3580 N.am  500  HIS500     -0.1975
    195  CA       -27.4460  129.8160  -16.3260 C.3   500  HIS500      0.1656
    196  C        -26.6290  130.5820  -17.4160 C.2   500  HIS500      0.2291
    197  O        -25.4610  130.8250  -17.1970 O.2   500  HIS500     -0.2864
    198  CB       -27.3090  130.4770  -14.9200 C.3   500  HIS500      0.0771
    199  CG       -26.1830  129.9420  -14.0680 C.ar  500  HIS500      0.0820
    200  ND1      -24.8880  129.8160  -14.5170 N.ar  500  HIS500     -0.2267
    201  CD2      -26.1690  129.5080  -12.7820 C.ar  500  HIS500      0.1154
    202  CE1      -24.1440  129.2650  -13.5760 C.ar  500  HIS500      0.1986
    203  NE2      -24.8980  129.0790  -12.5070 N.ar  500  HIS500     -0.2212
@<TRIPOS>BOND
     1    70    68   am
     2    69    68    2
     3    68    67    1
     4   181   178    1
     5   178   179    1
     6   178   177    1
     7   151   150    1
     8   151   154    1
     9   151   152    1
    10    67    66    2
    11   161   158    1
    12   150   156    1
    13   157   152   am
    14   157   158    1
    15   180   179    2
    16   179   182   am
    17   154   155    1
    18   152   153    2
    19   175   174    1
    20   177   172   am
    21   196   197    2
    22   196   195    1
    23   173   172    2
    24   188   189    1
    25   184   185    2
    26   184   183    1
    27   156   155    1
    28   182   183    1
    29   158   159    1
    30    66    63    1
    31   172   171    1
    32   174   171    1
    33   174   176    1
    34   183   186    1
    35   160   159    2
    36   186   187    1
    37    59    57   ar
    38    59    60   ar
    39   194   195    1
    40   194   190   am
    41   195   198    1
    42    57    55   ar
    43   189   190    1
    44   189   192    1
    45   159   162   am
    46   171   170    1
    47   190   191    2
    48    62    63    1
    49    62    52   am
    50    63    64    1
    51   170   164   am
    52    61    60    1
    53    74    73    2
    54    60    58   ar
    55    44    43    2
    56    51    52    1
    57    51    54    1
    58    51    50    1
    59   162   163    1
    60    55    54    1
    61    55    56   ar
    62    52    53    2
    63   198   199    1
    64   192   193    1
    65    64    65    2
    66    64    71   am
    67    77    71    1
    68    77    76    1
    69    84    85    1
    70   164   163    1
    71   164   165    2
    72   200   199   ar
    73   200   202   ar
    74    71    72    1
    75    86    85    1
    76    86    87    2
    77    85    88    1
    78    43    50   am
    79    43    42    1
    80    73    72    1
    81    73    78   am
    82    58    56   ar
    83   199   201   ar
    84    80    79    1
    85    80    81    2
    86   163   166    1
    87    79    78    1
    88    79    82    1
    89    76    75    1
    90   202   203   ar
    91    72    75    1
    92    35    34    2
    93    83    82    1
    94   148   146   ar
    95   148   149   ar
    96    42    45    1
    97    42    41    1
    98   146   145   ar
    99    88    89    1
   100   166   167    1
   101   149   147   ar
   102   201   203   ar
   103   145   147   ar
   104   145   144    1
   105    45    46    1
   106    34    41   am
   107    34    33    1
   108   167   168    2
   109   167   169   am
   110   144   141    1
   111    48    47   ar
   112   143   142    2
   113    89    90   ar
   114    89    91   ar
   115    90    92   ar
   116    31    28    1
   117   141   142    1
   118   141   140    1
   119    33    32    1
   120    33    36    1
   121    47    46    1
   122    47    49   ar
   123    32    29   am
   124    91    93   ar
   125     1     2    1
   126    92    94   ar
   127     4     3    2
   128    29    28    1
   129    29    30    2
   130    28    27    1
   131     3     2    1
   132     3     9   am
   133    37    36    1
   134    37    38    1
   135    10     9    1
   136    10    11    1
   137    93    94   ar
   138     2     5    1
   139   139   138    1
   140   138   137    1
   141   137   136    1
   142     6     5    1
   143     6     8    1
   144   125   124   ar
   145   125   123   ar
   146   129   128    2
   147     5     7    1
   148   124   122   ar
   149   135   134    2
   150   133   136    1
   151   133   132    1
   152   133   134    1
   153   130   131    1
   154   130   127    1
   155    12    11    2
   156    27    21   am
   157    11    13   am
   158   128   132   am
   159   128   127    1
   160    38    39    1
   161   123   121   ar
   162   122   121   ar
   163   127   126    1
   164    22    21    2
   165    21    20    1
   166   121   120    1
   167    13    14    1
   168    39    40    1
   169   102   103    1
   170   102   101    1
   171    19    20    1
   172    19    15   am
   173   120   117    1
   174   117   118    1
   175   117   116    1
   176   119   118    2
   177    20    23    1
   178    14    15    1
   179    14    17    1
   180   107   106    2
   181    15    16    2
   182    24    23    1
   183    24    26    1
   184   108   109    1
   185   108   105    1
   186   101   100    1
   187   106   116   am
   188   106   105    1
   189   100    99    1
   190   109   110   ar
   191   109   111   ar
   192    23    25    1
   193   110   112   ar
   194   111   113   ar
   195    17    18    1
   196   105   104    1
   197   112   114   ar
   198   113   114   ar
   199   114   115    1
   200    98    97    2
   201    99    96    1
   202    96    97    1
   203    96    95    1
