@<TRIPOS>MOLECULE
tmp/1gx0B01.pdb
 111 110 0 0 0
SMALL
GASTEIGER

@<TRIPOS>ATOM
      1  N         17.4520   20.3290    1.5280 N.3   114  TRP114     -0.1241
      2  CA        16.3900   19.3540    1.7480 C.3   114  TRP114      0.1605
      3  C         16.7140   18.0270    1.0620 C.2   114  TRP114      0.2264
      4  O         16.2970   16.9650    1.5310 O.2   114  TRP114     -0.2867
      5  CB        15.0350   19.8820    1.2570 C.3   114  TRP114      0.0550
      6  CG        14.9460   20.1210   -0.2160 C.ar  114  TRP114      0.0003
      7  CD1       15.1290   21.3080   -0.8680 C.ar  114  TRP114      0.0946
      8  CD2       14.6410   19.1510   -1.2250 C.ar  114  TRP114      0.0152
      9  NE1       14.9530   21.1370   -2.2210 N.ar  114  TRP114     -0.2442
     10  CE2       14.6530   19.8230   -2.4680 C.ar  114  TRP114      0.0810
     11  CE3       14.3570   17.7770   -1.1990 C.ar  114  TRP114      0.0012
     12  CZ2       14.3920   19.1680   -3.6780 C.ar  114  TRP114      0.0191
     13  CZ3       14.0970   17.1240   -2.4040 C.ar  114  TRP114      0.0001
     14  CH2       14.1170   17.8220   -3.6260 C.ar  114  TRP114      0.0015
     15  N         16.6180   14.4100    3.0420 N.3   118  SER118     -0.1217
     16  CA        15.9490   13.2070    2.5570 C.3   118  SER118      0.1889
     17  C         16.9240   12.0400    2.3960 C.2   118  SER118      0.2288
     18  O         16.6460   10.9150    2.8280 O.2   118  SER118     -0.2866
     19  CB        15.2770   13.4950    1.2140 C.3   118  SER118      0.2089
     20  OG        14.5940   12.3560    0.7250 O.3   118  SER118     -0.2183
     21  N         18.7540   10.2150    5.5580 N.3   121  ARG121     -0.1245
     22  CA        17.9350    9.2700    6.3090 C.3   121  ARG121      0.1563
     23  C         18.5010    7.8610    6.1800 C.2   121  ARG121      0.2260
     24  O         18.4610    7.0800    7.1300 O.2   121  ARG121     -0.2867
     25  CB        16.4980    9.2600    5.7860 C.3   121  ARG121      0.0307
     26  CG        15.7180   10.5230    6.0620 C.3   121  ARG121      0.0489
     27  CD        14.2720   10.3390    5.6330 C.3   121  ARG121      0.2205
     28  NE        14.1210   10.2410    4.1810 N.pl3 121  ARG121     -0.0865
     29  CZ        12.9990    9.8550    3.5750 C.cat 121  ARG121      0.5346
     30  NH1       11.9390    9.5220    4.2960 N.pl3 121  ARG121      0.1354
     31  NH2       12.9230    9.8310    2.2510 N.pl3 121  ARG121      0.1354
     32  N          8.0360    8.1830    4.8480 N.3   144  ASP144     -0.1239
     33  CA         8.0500    9.6330    4.6900 C.3   144  ASP144      0.1674
     34  C          7.0280   10.1320    5.7040 C.2   144  ASP144      0.2266
     35  O          6.1060    9.4000    6.0700 O.2   144  ASP144     -0.2867
     36  CB         7.5650   10.0200    3.2900 C.3   144  ASP144      0.1410
     37  CG         8.6830   10.0990    2.2770 C.2   144  ASP144      0.3668
     38  OD1        9.7820    9.5650    2.5340 O.co2 144  ASP144     -0.2456
     39  OD2        8.4530   10.6960    1.2040 O.co2 144  ASP144     -0.2456
     40  N          8.3580    3.5070   -4.8630 N.3   199  HIS199     -0.1226
     41  CA         8.2460    4.7920   -4.1800 C.3   199  HIS199      0.1752
     42  C          9.0990    4.7520   -2.9130 C.2   199  HIS199      0.2596
     43  O          8.9830    3.8220   -2.1170 O.2   199  HIS199     -0.2718
     44  CB         6.7790    5.0400   -3.8120 C.3   199  HIS199      0.0759
     45  CG         6.4750    6.4510   -3.4150 C.ar  199  HIS199      0.0818
     46  ND1        5.2190    6.8510   -3.0100 N.ar  199  HIS199     -0.2268
     47  CD2        7.2490    7.5620   -3.3900 C.ar  199  HIS199      0.1154
     48  CE1        5.2320    8.1480   -2.7560 C.ar  199  HIS199      0.1986
     49  NE2        6.4520    8.6030   -2.9800 N.ar  199  HIS199     -0.2212
     50  N          9.9500    5.7580   -2.7220 N.am  200  ALA200     -0.1966
     51  CA        10.8100    5.7960   -1.5420 C.3   200  ALA200      0.1728
     52  C         10.0990    6.2510   -0.2680 C.2   200  ALA200      0.2616
     53  O         10.7050    6.2880    0.8020 O.2   200  ALA200     -0.2715
     54  CB        12.0280    6.6850   -1.8110 C.3   200  ALA200      0.0334
     55  N          8.8150    6.5850   -0.3800 N.am  201  ALA201     -0.1977
     56  CA         8.0330    7.0280    0.7720 C.3   201  ALA201      0.1597
     57  C          7.7230    5.8730    1.7250 C.2   201  ALA201      0.2287
     58  O          7.3760    6.0870    2.8900 O.2   201  ALA201     -0.2864
     59  CB         6.7300    7.6880    0.3010 C.3   201  ALA201      0.0319
     60  N         16.1650   11.7730   -8.6690 N.3   233  TRP233     -0.1227
     61  CA        15.2150   11.6340   -7.5770 C.3   233  TRP233      0.1737
     62  C         15.8530   11.1820   -6.2680 C.2   233  TRP233      0.2595
     63  O         15.2610   10.4540   -5.4730 O.2   233  TRP233     -0.2718
     64  CB        14.0640   10.7170   -7.9890 C.3   233  TRP233      0.0564
     65  CG        13.2140   11.3620   -9.0450 C.ar  233  TRP233      0.0003
     66  CD1       13.1890   11.0650  -10.3770 C.ar  233  TRP233      0.0946
     67  CD2       12.3240   12.4720   -8.8650 C.ar  233  TRP233      0.0152
     68  NE1       12.3410   11.9240  -11.0400 N.ar  233  TRP233     -0.2442
     69  CE2       11.7970   12.7960  -10.1350 C.ar  233  TRP233      0.0810
     70  CE3       11.9230   13.2250   -7.7530 C.ar  233  TRP233      0.0012
     71  CZ2       10.8880   13.8440  -10.3240 C.ar  233  TRP233      0.0191
     72  CZ3       11.0170   14.2710   -7.9420 C.ar  233  TRP233      0.0001
     73  CH2       10.5110   14.5670   -9.2200 C.ar  233  TRP233      0.0015
     74  N         17.0860   11.6280   -6.0710 N.am  234  HIS234     -0.1961
     75  CA        17.8300   11.3770   -4.8490 C.3   234  HIS234      0.1787
     76  C         17.7420    9.9630   -4.2800 C.2   234  HIS234      0.2620
     77  O         17.9880    9.0010   -5.0040 O.2   234  HIS234     -0.2715
     78  CB        17.3840   12.4230   -3.8380 C.3   234  HIS234      0.0785
     79  CG        17.1040   13.7520   -4.4690 C.ar  234  HIS234      0.0821
     80  ND1       15.8400   14.1370   -4.8620 N.ar  234  HIS234     -0.2267
     81  CD2       17.9380   14.7390   -4.8740 C.ar  234  HIS234      0.1154
     82  CE1       15.9070   15.3020   -5.4820 C.ar  234  HIS234      0.1986
     83  NE2       17.1690   15.6880   -5.5040 N.ar  234  HIS234     -0.2212
     84  N         17.3980    9.8250   -3.0000 N.am  235  ASP235     -0.1957
     85  CA        17.3380    8.4900   -2.4070 C.3   235  ASP235      0.1840
     86  C         16.4230    7.5100   -3.1320 C.2   235  ASP235      0.2621
     87  O         16.6770    6.3060   -3.1290 O.2   235  ASP235     -0.2715
     88  CB        16.9670    8.5520   -0.9110 C.3   235  ASP235      0.1450
     89  CG        15.8650    9.5420   -0.6150 C.2   235  ASP235      0.3671
     90  OD1       16.1000   10.7560   -0.7960 O.co2 235  ASP235     -0.2456
     91  OD2       14.7690    9.1080   -0.1940 O.co2 235  ASP235     -0.2456
     92  N         15.3710    8.0140   -3.7660 N.am  236  GLU236     -0.1977
     93  CA        14.4500    7.1380   -4.4850 C.3   236  GLU236      0.1602
     94  C         15.1240    6.5100   -5.7020 C.2   236  GLU236      0.2287
     95  O         14.8560    5.3560   -6.0420 O.2   236  GLU236     -0.2864
     96  CB        13.2120    7.9120   -4.9320 C.3   236  GLU236      0.0415
     97  CG        12.1180    7.0340   -5.5150 C.3   236  GLU236      0.1163
     98  CD        10.8360    7.8070   -5.7500 C.2   236  GLU236      0.3649
     99  OE1       10.7570    8.5420   -6.7620 O.co2 236  GLU236     -0.2457
    100  OE2        9.9180    7.6890   -4.9100 O.co2 236  GLU236     -0.2457
    101  N          9.9990   23.7850    2.3940 N.3   284  ARG284     -0.1245
    102  CA        11.4080   23.6900    2.0010 C.3   284  ARG284      0.1563
    103  C         12.0490   25.0720    1.9100 C.2   284  ARG284      0.2260
    104  O         11.3740   26.0560    1.6070 O.2   284  ARG284     -0.2867
    105  CB        11.5370   22.9700    0.6590 C.3   284  ARG284      0.0307
    106  CG        11.2060   21.4840    0.7220 C.3   284  ARG284      0.0489
    107  CD        11.2890   20.8580   -0.6580 C.3   284  ARG284      0.2205
    108  NE        11.0090   19.4250   -0.6320 N.pl3 284  ARG284     -0.0865
    109  CZ        10.9510   18.6600   -1.7150 C.cat 284  ARG284      0.5346
    110  NH1       11.1550   19.1940   -2.9140 N.pl3 284  ARG284      0.1354
    111  NH2       10.6890   17.3640   -1.6040 N.pl3 284  ARG284      0.1354
@<TRIPOS>BOND
     1    68    66   ar
     2    68    69   ar
     3    66    65   ar
     4    71    69   ar
     5    71    73   ar
     6    69    67   ar
     7    73    72   ar
     8    65    67   ar
     9    65    64    1
    10    67    70   ar
    11    60    61    1
    12    64    61    1
    13    72    70   ar
    14    61    62    1
    15    99    98   ar
    16    62    74   am
    17    62    63    2
    18    74    75    1
    19    95    94    2
    20    98    97    1
    21    98   100   ar
    22    94    93    1
    23    97    96    1
    24    83    82   ar
    25    83    81   ar
    26    82    80   ar
    27    77    76    2
    28    96    93    1
    29    81    79   ar
    30    40    41    1
    31    80    79   ar
    32    75    76    1
    33    75    78    1
    34    93    92    1
    35    79    78    1
    36    76    84   am
    37    41    44    1
    38    41    42    1
    39    44    45    1
    40    92    86   am
    41    12    14   ar
    42    12    10   ar
    43    14    13   ar
    44    45    47   ar
    45    45    46   ar
    46    47    49   ar
    47    86    87    2
    48    86    85    1
    49    46    48   ar
    50    84    85    1
    51    49    48   ar
    52   110   109    1
    53    42    50   am
    54    42    43    2
    55    50    51    1
    56    10     9   ar
    57    10     8   ar
    58    85    88    1
    59    13    11   ar
    60     9     7   ar
    61    54    51    1
    62   109   111    1
    63   109   108    2
    64    51    52    1
    65     8    11   ar
    66     8     6   ar
    67    88    89    1
    68     7     6   ar
    69    90    89   ar
    70   107   108    1
    71   107   106    1
    72    89    91   ar
    73    55    52   am
    74    55    56    1
    75    52    53    2
    76     6     5    1
    77    59    56    1
    78   105   106    1
    79   105   102    1
    80    20    19    1
    81    56    57    1
    82     3     4    2
    83     3     2    1
    84    39    37   ar
    85    19    16    1
    86     5     2    1
    87     1     2    1
    88   104   103    2
    89    57    58    2
    90   103   102    1
    91   102   101    1
    92    31    29    1
    93    37    38   ar
    94    37    36    1
    95    17    16    1
    96    17    18    2
    97    16    15    1
    98    36    33    1
    99    29    28    2
   100    29    30    1
   101    28    27    1
   102    33    32    1
   103    33    34    1
   104    21    22    1
   105    27    26    1
   106    34    35    2
   107    25    26    1
   108    25    22    1
   109    23    22    1
   110    23    24    2
