@<TRIPOS>MOLECULE
tmp/1gx1C01.pdb
 82 76 0 0 0
SMALL
GASTEIGER

@<TRIPOS>ATOM
      1  N         -5.3950   19.5260   66.7140 N.3    98  ILE98      -0.1245
      2  CA        -5.7880   18.2620   67.3510 C.3    98  ILE98       0.1561
      3  C         -5.5250   17.1490   66.3450 C.2    98  ILE98       0.2260
      4  O         -5.9300   17.2650   65.1930 O.2    98  ILE98      -0.2867
      5  CB        -7.2720   18.3100   67.6600 C.3    98  ILE98       0.0252
      6  CG1       -7.5100   19.4850   68.6490 C.3    98  ILE98       0.0019
      7  CG2       -7.7150   16.9590   68.2770 C.3    98  ILE98       0.0019
      8  CD1       -8.9550   19.7910   68.8130 C.3    98  ILE98       0.0001
      9  N         -6.2460   13.3610   65.7240 N.3   100  ALA100     -0.1231
     10  CA        -7.1580   12.2960   66.1780 C.3   100  ALA100      0.1694
     11  C         -7.8780   11.6810   64.9780 C.2   100  ALA100      0.2591
     12  O         -8.3580   12.4010   64.0790 O.2   100  ALA100     -0.2718
     13  CB        -8.2190   12.8600   67.1530 C.3   100  ALA100      0.0304
     14  N         -7.9950   10.3590   64.9900 N.am  101  GLN101     -0.1979
     15  CA        -8.6830    9.7110   63.9130 C.3   101  GLN101      0.1601
     16  C        -10.1940    9.8910   64.1390 C.2   101  GLN101      0.2287
     17  O        -10.9420   10.0310   63.1600 O.2   101  GLN101     -0.2864
     18  CB        -8.3890    8.2120   63.9870 C.3   101  GLN101      0.0394
     19  CG        -8.8130    7.4680   62.7120 C.3   101  GLN101      0.0908
     20  CD        -8.0870    7.9120   61.4660 C.2   101  GLN101      0.2608
     21  OE1       -6.8990    8.2140   61.4690 O.2   101  GLN101     -0.2717
     22  NE2       -8.8260    7.9950   60.3900 N.am  101  GLN101     -0.0878
     23  N        -12.9500   11.0690   67.8940 N.3   103  PRO103     -0.2102
     24  CA       -14.1290   11.4830   67.1590 C.3   103  PRO103      0.1504
     25  C        -13.9110   12.6980   66.2330 C.2   103  PRO103      0.2575
     26  O        -12.8500   13.3360   66.2260 O.2   103  PRO103     -0.2718
     27  CB       -15.1400   11.8390   68.2880 C.3   103  PRO103      0.0282
     28  CG       -14.2860   12.2900   69.4830 C.3   103  PRO103      0.0208
     29  CD       -12.9890   11.4290   69.3230 C.3   103  PRO103      0.0893
     30  N        -14.9120   12.9990   65.3980 N.am  104  LYS104     -0.1980
     31  CA       -14.8520   14.1610   64.5220 C.3   104  LYS104      0.1596
     32  C        -14.8370   15.4400   65.3840 C.2   104  LYS104      0.2287
     33  O        -15.6380   15.5570   66.2920 O.2   104  LYS104     -0.2864
     34  CB       -16.0430   14.1390   63.5380 C.3   104  LYS104      0.0298
     35  CG       -15.9790   15.2390   62.5000 C.3   104  LYS104      0.0038
     36  CD       -15.0640   14.8580   61.3280 C.3   104  LYS104      0.0206
     37  CE       -15.3900   15.6530   60.0940 C.3   104  LYS104      0.1093
     38  NZ       -14.6720   15.0720   58.8750 N.3   104  LYS104     -0.1314
     39  N        -14.6380   18.9050   64.1990 N.3   105  LEU105     -0.1245
     40  CA       -15.2120   20.0530   63.5190 C.3   105  LEU105      0.1561
     41  C        -16.4490   20.7090   64.2020 C.2   105  LEU105      0.2260
     42  O        -16.4190   21.9170   64.4470 O.2   105  LEU105     -0.2867
     43  CB       -15.5330   19.7000   62.0870 C.3   105  LEU105      0.0270
     44  CG       -15.9770   20.9210   61.2790 C.3   105  LEU105      0.0019
     45  CD1      -14.8650   21.8680   61.2400 C.3   105  LEU105      0.0001
     46  CD2      -16.3290   20.4780   59.8610 C.3   105  LEU105      0.0001
     47  N        -15.5710   22.6200   67.6160 N.3   108  ILE108     -0.1245
     48  CA       -14.5010   23.6200   67.6420 C.3   108  ILE108      0.1561
     49  C        -14.9970   25.0180   67.9490 C.2   108  ILE108      0.2260
     50  O        -14.3350   25.7250   68.6850 O.2   108  ILE108     -0.2867
     51  CB       -13.6800   23.5480   66.3490 C.3   108  ILE108      0.0252
     52  CG1      -12.6750   22.3670   66.4490 C.3   108  ILE108      0.0019
     53  CG2      -12.8900   24.8360   66.1350 C.3   108  ILE108      0.0019
     54  CD1      -11.8830   22.1020   65.1170 C.3   108  ILE108      0.0001
     55  N         -8.2450   20.3640   63.2380 N.3   128  ALA128     -0.1231
     56  CA        -7.9460   18.9350   63.5130 C.3   128  ALA128      0.1694
     57  C         -7.4740   18.2310   62.2550 C.2   128  ALA128      0.2593
     58  O         -7.7410   18.7020   61.1230 O.2   128  ALA128     -0.2718
     59  CB        -9.1910   18.2520   64.0900 C.3   128  ALA128      0.0304
     60  N         -6.8130   17.0870   62.4190 N.am  129  THR129     -0.1939
     61  CA        -6.4250   16.3150   61.2830 C.3   129  THR129      0.2028
     62  C         -6.3940   14.8560   61.7300 C.2   129  THR129      0.2642
     63  O         -6.1940   14.6000   62.9060 O.2   129  THR129     -0.2714
     64  CB        -5.0030   16.7480   60.7960 C.3   129  THR129      0.1808
     65  OG1       -4.6250   15.8920   59.6910 O.3   129  THR129     -0.2208
     66  CG2       -3.9450   16.4660   61.8500 C.3   129  THR129      0.0379
     67  N         -6.6090   13.9230   60.8090 N.am  130  THR130     -0.1950
     68  CA        -6.3710   12.5260   61.1460 C.3   130  THR130      0.1897
     69  C         -4.9500   12.2230   60.7080 C.2   130  THR130      0.2313
     70  O         -4.3290   13.0440   60.0100 O.2   130  THR130     -0.2863
     71  CB        -7.3020   11.5930   60.3310 C.3   130  THR130      0.1794
     72  OG1       -6.9200   11.5890   58.9360 O.3   130  THR130     -0.2208
     73  CG2       -8.7830   12.1070   60.3460 C.3   130  THR130      0.0378
     74  N         -4.6960    9.3420   58.9250 N.3   132  GLU132     -0.1245
     75  CA        -5.0570    8.3620   57.8690 C.3   132  GLU132      0.1567
     76  C         -4.8470    6.9300   58.3470 C.2   132  GLU132      0.2260
     77  O         -4.2740    6.1190   57.6480 O.2   132  GLU132     -0.2867
     78  CB        -4.2880    8.5980   56.5450 C.3   132  GLU132      0.0388
     79  CG        -4.4030   10.0220   56.0160 C.3   132  GLU132      0.1160
     80  CD        -5.8110   10.3900   55.5810 C.2   132  GLU132      0.3649
     81  OE1       -6.0940   11.6030   55.4430 O.co2 132  GLU132     -0.2457
     82  OE2       -6.6360    9.4700   55.3880 O.co2 132  GLU132     -0.2457
@<TRIPOS>BOND
     1    82    80   ar
     2    81    80   ar
     3    80    79    1
     4    79    78    1
     5    78    75    1
     6    77    76    2
     7    75    76    1
     8    75    74    1
     9    38    37    1
    10    72    71    1
    11    65    64    1
    12    46    44    1
    13    70    69    2
    14    37    36    1
    15    71    73    1
    16    71    68    1
    17    22    20   am
    18    69    68    1
    19    64    61    1
    20    64    66    1
    21    67    68    1
    22    67    62   am
    23    58    57    2
    24    45    44    1
    25    44    43    1
    26    61    62    1
    27    61    60    1
    28    36    35    1
    29    20    21    2
    30    20    19    1
    31    62    63    2
    32    43    40    1
    33    57    60   am
    34    57    56    1
    35    35    34    1
    36    19    18    1
    37    17    16    2
    38    55    56    1
    39    56    59    1
    40    40    39    1
    41    40    41    1
    42    34    31    1
    43    15    18    1
    44    15    16    1
    45    15    14    1
    46    12    11    2
    47    41    42    2
    48    31    32    1
    49    31    30    1
    50    11    14   am
    51    11    10    1
    52    54    52    1
    53     4     3    2
    54    32    33    2
    55    30    25   am
    56     9    10    1
    57    53    51    1
    58    10    13    1
    59    26    25    2
    60    25    24    1
    61     3     2    1
    62    51    52    1
    63    51    48    1
    64     1     2    1
    65    24    23    1
    66    24    27    1
    67     2     5    1
    68    47    48    1
    69    48    49    1
    70     5     7    1
    71     5     6    1
    72    23    29    1
    73    49    50    2
    74    27    28    1
    75     6     8    1
    76    29    28    1
