@<TRIPOS>MOLECULE
tmp/1gx1C00.pdb
 88 86 0 0 0
SMALL
GASTEIGER

@<TRIPOS>ATOM
      1  N          1.0610   17.4100   73.3810 N.3     8  ASP8       -0.1225
      2  CA         0.6150   16.5040   74.4270 C.3     8  ASP8        0.1805
      3  C         -0.1100   15.3190   73.7810 C.2     8  ASP8        0.2598
      4  O         -0.5990   15.4110   72.6540 O.2     8  ASP8       -0.2718
      5  CB        -0.3170   17.2430   75.4170 C.3     8  ASP8        0.1424
      6  CG        -0.5610   16.4710   76.6860 C.2     8  ASP8        0.3668
      7  OD1        0.2520   15.5730   77.0460 O.co2   8  ASP8       -0.2456
      8  OD2       -1.5550   16.7250   77.3850 O.co2   8  ASP8       -0.2456
      9  N         -0.1550   14.2180   74.5350 N.am    9  VAL9       -0.1966
     10  CA        -0.7810   12.9950   74.1200 C.3     9  VAL9        0.1727
     11  C         -1.4740   12.3770   75.3200 C.2     9  VAL9        0.2616
     12  O         -0.9080   12.3350   76.4170 O.2     9  VAL9       -0.2715
     13  CB         0.2680   11.9520   73.6300 C.3     9  VAL9        0.0290
     14  CG1       -0.3810   10.5630   73.5160 C.3     9  VAL9        0.0023
     15  CG2        0.9930   12.3960   72.3020 C.3     9  VAL9        0.0023
     16  N         -2.7100   11.9420   75.1580 N.am   10  HIS10      -0.1973
     17  CA        -3.3060   11.0840   76.1970 C.3    10  HIS10       0.1656
     18  C         -3.8920    9.8400   75.5550 C.2    10  HIS10       0.2291
     19  O         -4.2760    9.8370   74.4000 O.2    10  HIS10      -0.2864
     20  CB        -4.3390   11.8370   77.0550 C.3    10  HIS10       0.0771
     21  CG        -3.6900   12.7790   78.0230 C.ar   10  HIS10       0.0820
     22  ND1       -3.0900   12.3490   79.1910 N.ar   10  HIS10      -0.2267
     23  CD2       -3.4220   14.1020   77.9310 C.ar   10  HIS10       0.1154
     24  CE1       -2.5130   13.3820   79.7990 C.ar   10  HIS10       0.1986
     25  NE2       -2.6900   14.4530   79.0480 N.ar   10  HIS10      -0.2212
     26  N         -4.7710   11.3080   85.2250 N.3    34  HIS34      -0.1226
     27  CA        -5.0330   11.7380   86.5960 C.3    34  HIS34       0.1752
     28  C         -5.9350   12.9450   86.4160 C.2    34  HIS34       0.2596
     29  O         -6.9850   13.0670   87.0750 O.2    34  HIS34      -0.2718
     30  CB        -3.9530   12.1180   87.4790 C.3    34  HIS34       0.0759
     31  CG        -2.6490   11.6310   86.9070 C.ar   34  HIS34       0.0818
     32  ND1       -2.0240   10.4720   87.3230 N.ar   34  HIS34      -0.2268
     33  CD2       -1.8400   12.1750   85.9670 C.ar   34  HIS34       0.1154
     34  CE1       -0.8960   10.3150   86.6510 C.ar   34  HIS34       0.1986
     35  NE2       -0.7640   11.3330   85.8190 N.ar   34  HIS34      -0.2212
     36  N         -5.5480   13.8040   85.4660 N.am   35  SER35      -0.1952
     37  CA        -6.2850   15.0150   85.1630 C.3    35  SER35       0.1924
     38  C         -7.5070   14.6330   84.3370 C.2    35  SER35       0.2314
     39  O         -7.7950   13.4490   84.2130 O.2    35  SER35      -0.2863
     40  CB        -5.3820   15.9260   84.3340 C.3    35  SER35       0.2116
     41  OG        -5.1840   15.3840   83.0300 O.3    35  SER35      -0.2180
     42  N         -3.8160   21.1570   77.4680 N.3    42  HIS42      -0.1241
     43  CA        -2.4890   20.9720   78.0190 C.3    42  HIS42       0.1621
     44  C         -1.4570   21.4580   77.0380 C.2    42  HIS42       0.2264
     45  O         -0.5080   22.1210   77.4450 O.2    42  HIS42      -0.2867
     46  CB        -2.1820   19.5130   78.3760 C.3    42  HIS42       0.0745
     47  CG        -2.9760   19.0160   79.5380 C.ar   42  HIS42       0.0817
     48  ND1       -2.9200   17.7090   79.9640 N.ar   42  HIS42      -0.2268
     49  CD2       -3.8650   19.6490   80.3480 C.ar   42  HIS42       0.1154
     50  CE1       -3.7590   17.5510   80.9780 C.ar   42  HIS42       0.1986
     51  NE2       -4.3520   18.7100   81.2210 N.ar   42  HIS42      -0.2212
     52  N          1.1100   24.5640   77.7020 N.3    46  ASP46      -0.1239
     53  CA         2.5650   24.4610   77.5150 C.3    46  ASP46       0.1674
     54  C          3.1420   25.4710   76.4970 C.2    46  ASP46       0.2266
     55  O          4.2310   26.0380   76.7280 O.2    46  ASP46      -0.2867
     56  CB         2.9120   23.0260   77.1300 C.3    46  ASP46       0.1410
     57  CG         3.2110   22.1410   78.3430 C.2    46  ASP46       0.3668
     58  OD1        3.2930   22.6400   79.5160 O.co2  46  ASP46      -0.2456
     59  OD2        3.4040   20.8940   78.2270 O.co2  46  ASP46      -0.2456
     60  N          6.9230   24.3210   81.9980 N.3    56  ASP56      -0.1225
     61  CA         5.8270   23.4860   81.4680 C.3    56  ASP56       0.1805
     62  C          4.7880   23.1770   82.5390 C.2    56  ASP56       0.2598
     63  O          5.0010   23.4860   83.7080 O.2    56  ASP56      -0.2718
     64  CB         6.3300   22.1730   80.7880 C.3    56  ASP56       0.1424
     65  CG         7.1450   21.2570   81.7050 C.2    56  ASP56       0.3668
     66  OD1        6.8060   21.0780   82.9130 O.co2  56  ASP56      -0.2456
     67  OD2        8.1550   20.5970   81.3040 O.co2  56  ASP56      -0.2456
     68  N          3.6560   22.5920   82.1610 N.am   57  ILE57      -0.1966
     69  CA         2.6290   22.3220   83.1540 C.3    57  ILE57       0.1727
     70  C          3.0760   21.4810   84.3380 C.2    57  ILE57       0.2617
     71  O          2.5350   21.6300   85.4510 O.2    57  ILE57      -0.2715
     72  CB         1.3680   21.7110   82.5200 C.3    57  ILE57       0.0290
     73  CG1        1.6920   20.4250   81.7590 C.3    57  ILE57       0.0022
     74  CG2        0.6990   22.7180   81.6500 C.3    57  ILE57       0.0023
     75  CD1        0.5400   19.9580   80.9320 C.3    57  ILE57       0.0001
     76  N          4.0680   20.6240   84.1420 N.am   58  GLY58      -0.1940
     77  CA         4.5330   19.7870   85.2330 C.3    58  GLY58       0.2014
     78  C          5.3170   20.5990   86.2470 C.2    58  GLY58       0.2638
     79  O          5.2220   20.3670   87.4630 O.2    58  GLY58      -0.2714
     80  N          6.0830   21.5670   85.7690 N.am   59  LYS59      -0.1977
     81  CA         6.8350   22.4330   86.6700 C.3    59  LYS59       0.1596
     82  C          5.8810   23.3310   87.5130 C.2    59  LYS59       0.2287
     83  O          6.1070   23.5340   88.7060 O.2    59  LYS59      -0.2864
     84  CB         7.8700   23.2430   85.8720 C.3    59  LYS59       0.0298
     85  CG         8.8700   24.1090   86.6850 C.3    59  LYS59       0.0038
     86  CD         9.5710   25.0690   85.7530 C.3    59  LYS59       0.0206
     87  CE        10.6950   25.8580   86.4340 C.3    59  LYS59       0.1093
     88  NZ        10.8620   27.1830   85.6970 N.3    59  LYS59      -0.1314
@<TRIPOS>BOND
     1    15    13    1
     2     4     3    2
     3     1     2    1
     4    14    13    1
     5    13    10    1
     6     3     2    1
     7     3     9   am
     8    10     9    1
     9    10    11    1
    10    19    18    2
    11     2     5    1
    12    16    11   am
    13    16    17    1
    14    11    12    2
    15     5     6    1
    16    18    17    1
    17    17    20    1
    18    54    55    2
    19    54    53    1
    20     6     7   ar
    21     6     8   ar
    22    44    45    2
    23    44    43    1
    24    20    21    1
    25    56    53    1
    26    56    57    1
    27    42    43    1
    28    53    52    1
    29    23    21   ar
    30    23    25   ar
    31    43    46    1
    32    21    22   ar
    33    59    57   ar
    34    57    58   ar
    35    46    47    1
    36    25    24   ar
    37    22    24   ar
    38    47    48   ar
    39    47    49   ar
    40    48    50   ar
    41    49    51   ar
    42    64    61    1
    43    64    65    1
    44    75    73    1
    45    50    51   ar
    46    67    65   ar
    47    61    60    1
    48    61    62    1
    49    74    72    1
    50    65    66   ar
    51    73    72    1
    52    68    62   am
    53    68    69    1
    54    72    69    1
    55    62    63    2
    56    41    40    1
    57    69    70    1
    58    76    70   am
    59    76    77    1
    60    39    38    2
    61    40    37    1
    62    38    37    1
    63    70    71    2
    64    37    36    1
    65    26    27    1
    66    77    78    1
    67    36    28   am
    68    88    87    1
    69    86    87    1
    70    86    85    1
    71    80    78   am
    72    80    81    1
    73    35    33   ar
    74    35    34   ar
    75    84    81    1
    76    84    85    1
    77    33    31   ar
    78    78    79    2
    79    28    27    1
    80    28    29    2
    81    27    30    1
    82    34    32   ar
    83    81    82    1
    84    31    32   ar
    85    31    30    1
    86    82    83    2
