@<TRIPOS>MOLECULE
tmp/1gx2B01.pdb
 86 85 0 0 0
SMALL
GASTEIGER

@<TRIPOS>ATOM
      1  N         17.3480   29.3270   24.4660 N.3    39  ARG39      -0.1245
      2  CA        18.0060   28.3160   25.2770 C.3    39  ARG39       0.1563
      3  C         18.4330   27.0980   24.4500 C.2    39  ARG39       0.2260
      4  O         19.5060   26.5390   24.6880 O.2    39  ARG39      -0.2867
      5  CB        17.1020   27.8770   26.4280 C.3    39  ARG39       0.0307
      6  CG        17.8140   27.0270   27.4610 C.3    39  ARG39       0.0489
      7  CD        16.8370   26.3980   28.4280 C.3    39  ARG39       0.2205
      8  NE        17.5270   25.6810   29.4960 N.pl3  39  ARG39      -0.0865
      9  CZ        17.0500   24.5970   30.0980 C.cat  39  ARG39       0.5346
     10  NH1       15.8750   24.1000   29.7390 N.pl3  39  ARG39       0.1354
     11  NH2       17.7550   24.0040   31.0530 N.pl3  39  ARG39       0.1354
     12  N         21.6600   27.7950   22.7200 N.3    42  PHE42      -0.1227
     13  CA        22.7570   27.7510   23.6770 C.3    42  PHE42       0.1736
     14  C         23.1740   26.2930   23.9440 C.2    42  PHE42       0.2595
     15  O         24.3530   25.9570   23.8840 O.2    42  PHE42      -0.2718
     16  CB        22.3120   28.4390   24.9740 C.3    42  PHE42       0.0547
     17  CG        23.1480   28.0940   26.1710 C.ar   42  PHE42      -0.0202
     18  CD1       22.5380   27.7920   27.3810 C.ar   42  PHE42      -0.0042
     19  CD2       24.5390   28.0730   26.0970 C.ar   42  PHE42      -0.0042
     20  CE1       23.2920   27.4700   28.5050 C.ar   42  PHE42      -0.0003
     21  CE2       25.3050   27.7550   27.2160 C.ar   42  PHE42      -0.0003
     22  CZ        24.6780   27.4520   28.4220 C.ar   42  PHE42      -0.0000
     23  N         22.1990   25.4320   24.2250 N.am   43  HIS43      -0.1975
     24  CA        22.4940   24.0330   24.4970 C.3    43  HIS43       0.1656
     25  C         22.9700   23.2680   23.2630 C.2    43  HIS43       0.2291
     26  O         23.4810   22.1540   23.3790 O.2    43  HIS43      -0.2864
     27  CB        21.2870   23.3340   25.1330 C.3    43  HIS43       0.0771
     28  CG        21.1610   23.5870   26.6100 C.ar   43  HIS43       0.0820
     29  ND1       20.2290   22.9490   27.4000 N.ar   43  HIS43      -0.2267
     30  CD2       21.8620   24.3990   27.4350 C.ar   43  HIS43       0.1154
     31  CE1       20.3620   23.3570   28.6520 C.ar   43  HIS43       0.1986
     32  NE2       21.3450   24.2340   28.7020 N.ar   43  HIS43      -0.2212
     33  N         21.0030   15.5670   31.2780 N.3    69  PHE69      -0.1227
     34  CA        20.7240   16.2990   32.5020 C.3    69  PHE69       0.1736
     35  C         20.7400   17.7750   32.1160 C.2    69  PHE69       0.2596
     36  O         21.7650   18.2980   31.6790 O.2    69  PHE69      -0.2718
     37  CB        21.8150   16.0030   33.5410 C.3    69  PHE69       0.0547
     38  CG        21.6590   16.7690   34.8220 C.ar   69  PHE69      -0.0202
     39  CD1       20.4490   16.7650   35.5040 C.ar   69  PHE69      -0.0042
     40  CD2       22.7260   17.4890   35.3520 C.ar   69  PHE69      -0.0042
     41  CE1       20.2950   17.4660   36.7000 C.ar   69  PHE69      -0.0003
     42  CE2       22.5860   18.1950   36.5520 C.ar   69  PHE69      -0.0003
     43  CZ        21.3650   18.1820   37.2270 C.ar   69  PHE69      -0.0000
     44  N         19.6070   18.4470   32.2650 N.am   70  GLY70      -0.1957
     45  CA        19.5430   19.8450   31.8790 C.3    70  GLY70       0.1869
     46  C         18.5640   20.0120   30.7310 C.2    70  GLY70       0.2309
     47  O         17.9740   21.0780   30.5730 O.2    70  GLY70      -0.2863
     48  N         12.8310   19.6130   30.4180 N.3    74  SER74      -0.1217
     49  CA        13.2330   20.9940   30.6180 C.3    74  SER74       0.1889
     50  C         13.2910   21.7620   29.3020 C.2    74  SER74       0.2288
     51  O         12.6470   22.8040   29.1560 O.2    74  SER74      -0.2866
     52  CB        14.5910   21.0370   31.3180 C.3    74  SER74       0.2089
     53  OG        14.9900   22.3710   31.5460 O.3    74  SER74      -0.2183
     54  N         27.4330   20.8710   29.5870 N.3   139  LEU139     -0.1231
     55  CA        26.4420   21.8330   30.0470 C.3   139  LEU139      0.1678
     56  C         26.6900   22.2320   31.4970 C.2   139  LEU139      0.2434
     57  O         26.8210   21.3850   32.3800 O.2   139  LEU139     -0.2733
     58  CB        25.0300   21.2580   29.8920 C.3   139  LEU139      0.0284
     59  CG        24.5710   20.9160   28.4590 C.3   139  LEU139      0.0019
     60  CD1       23.1230   20.4380   28.4940 C.3   139  LEU139      0.0001
     61  CD2       24.7010   22.1290   27.5540 C.3   139  LEU139      0.0001
     62  N         26.7800   23.5400   31.7580 N.am  140  PRO140     -0.2718
     63  CA        27.0140   24.0190   33.1190 C.3   140  PRO140      0.1535
     64  C         25.7800   23.7920   33.9840 C.2   140  PRO140      0.2598
     65  O         24.6480   23.8950   33.5030 O.2   140  PRO140     -0.2715
     66  CB        27.3180   25.4990   32.9150 C.3   140  PRO140      0.0310
     67  CG        26.4650   25.8460   31.7280 C.3   140  PRO140      0.0237
     68  CD        26.6870   24.6610   30.8090 C.3   140  PRO140      0.0939
     69  N         26.0020   23.4720   35.2560 N.am  141  ALA141     -0.1964
     70  CA        24.9050   23.2440   36.1890 C.3   141  ALA141      0.1713
     71  C         24.7270   24.4760   37.0690 C.2   141  ALA141      0.2458
     72  O         25.6680   25.2440   37.2720 O.2   141  ALA141     -0.2730
     73  CB        25.1880   22.0150   37.0550 C.3   141  ALA141      0.0333
     74  N         23.5140   24.6810   37.6020 N.am  142  PRO142     -0.2727
     75  CA        23.2000   25.8230   38.4660 C.3   142  PRO142      0.1402
     76  C         23.9550   25.8390   39.7940 C.2   142  PRO142      0.2269
     77  O         24.1080   26.8940   40.4090 O.2   142  PRO142     -0.2865
     78  CB        21.6850   25.7110   38.6460 C.3   142  PRO142      0.0296
     79  CG        21.4460   24.2360   38.5550 C.3   142  PRO142      0.0237
     80  CD        22.3220   23.8400   37.3920 C.3   142  PRO142      0.0939
     81  N         15.5020   23.4910   41.0030 N.3   180  SER180     -0.1217
     82  CA        16.8550   24.0380   40.9520 C.3   180  SER180      0.1889
     83  C         17.2540   24.9870   42.0860 C.2   180  SER180      0.2288
     84  O         18.4410   25.2530   42.2720 O.2   180  SER180     -0.2866
     85  CB        17.0920   24.7400   39.6060 C.3   180  SER180      0.2089
     86  OG        16.3990   25.9730   39.5350 O.3   180  SER180     -0.2183
@<TRIPOS>BOND
     1    12    13    1
     2    25    26    2
     3    25    24    1
     4    13    14    1
     5    13    16    1
     6    15    14    2
     7    14    23   am
     8    23    24    1
     9     3     4    2
    10     3     2    1
    11     1     2    1
    12    24    27    1
    13    16    17    1
    14    27    28    1
    15     2     5    1
    16    19    17   ar
    17    19    21   ar
    18    17    18   ar
    19     5     6    1
    20    28    29   ar
    21    28    30   ar
    22    21    22   ar
    23    18    20   ar
    24    29    31   ar
    25    30    32   ar
    26     6     7    1
    27    61    59    1
    28    22    20   ar
    29     7     8    1
    30    59    60    1
    31    59    58    1
    32    31    32   ar
    33    51    50    2
    34    50    49    1
    35     8     9    2
    36    54    55    1
    37    10     9    1
    38    58    55    1
    39    55    56    1
    40     9    11    1
    41    48    49    1
    42    47    46    2
    43    49    52    1
    44    46    45    1
    45    68    67    1
    46    68    62    1
    47    33    34    1
    48    52    53    1
    49    56    62   am
    50    56    57    2
    51    36    35    2
    52    67    66    1
    53    62    63    1
    54    45    44    1
    55    35    44   am
    56    35    34    1
    57    34    37    1
    58    66    63    1
    59    63    64    1
    60    65    64    2
    61    37    38    1
    62    64    69   am
    63    38    40   ar
    64    38    39   ar
    65    69    70    1
    66    40    42   ar
    67    39    41   ar
    68    70    73    1
    69    70    71    1
    70    42    43   ar
    71    41    43   ar
    72    71    72    2
    73    71    74   am
    74    80    74    1
    75    80    79    1
    76    74    75    1
    77    75    78    1
    78    75    76    1
    79    79    78    1
    80    86    85    1
    81    85    82    1
    82    76    77    2
    83    82    81    1
    84    82    83    1
    85    83    84    2
