@<TRIPOS>MOLECULE
tmp/1gx5A00.pdb
 107 102 0 0 0
SMALL
GASTEIGER

@<TRIPOS>ATOM
      1  N          4.1010   26.5990   20.2000 N.3    46  ARG46      -0.1245
      2  CA         4.9290   27.0830   21.2930 C.3    46  ARG46       0.1563
      3  C          4.1050   27.9510   22.2420 C.2    46  ARG46       0.2260
      4  O          4.2270   27.8320   23.4530 O.2    46  ARG46      -0.2867
      5  CB         6.1260   27.8730   20.7520 C.3    46  ARG46       0.0307
      6  CG         6.9740   28.5170   21.8560 C.3    46  ARG46       0.0489
      7  CD         7.5570   27.4820   22.7890 C.3    46  ARG46       0.2205
      8  NE         8.4150   26.5650   22.0610 N.pl3  46  ARG46      -0.0865
      9  CZ         9.1360   25.6030   22.6260 C.cat  46  ARG46       0.5346
     10  NH1        9.1060   25.4340   23.9490 N.pl3  46  ARG46       0.1354
     11  NH2        9.8740   24.8030   21.8570 N.pl3  46  ARG46       0.1354
     12  N          2.3060   25.8580   24.8630 N.3    49  LYS49      -0.1245
     13  CA         3.0820   25.3400   25.9640 C.3    49  LYS49       0.1561
     14  C          3.6730   26.3660   26.9210 C.2    49  LYS49       0.2260
     15  O          3.8800   26.0530   28.0880 O.2    49  LYS49      -0.2867
     16  CB         4.1700   24.3910   25.4520 C.3    49  LYS49       0.0271
     17  CG         4.9020   24.8500   24.2250 C.3    49  LYS49       0.0035
     18  CD         5.6690   23.6780   23.5910 C.3    49  LYS49       0.0206
     19  CE         6.7490   23.1090   24.5200 C.3    49  LYS49       0.1093
     20  NZ         6.2110   22.5110   25.7820 N.3    49  LYS49      -0.1314
     21  N         10.2240   19.9350   16.8790 N.3   151  LYS151     -0.1245
     22  CA         9.8380   20.7870   17.9990 C.3   151  LYS151      0.1561
     23  C          9.4310   22.1580   17.4720 C.2   151  LYS151      0.2260
     24  O          9.9470   22.6190   16.4580 O.2   151  LYS151     -0.2867
     25  CB        10.9920   20.9130   18.9950 C.3   151  LYS151      0.0271
     26  CG        12.2790   21.4620   18.4140 C.3   151  LYS151      0.0035
     27  CD        13.4930   20.9380   19.1850 C.3   151  LYS151      0.0206
     28  CE        13.3560   21.1940   20.6730 C.3   151  LYS151      0.1093
     29  NZ        14.4840   20.6190   21.4500 N.3   151  LYS151     -0.1314
     30  N         11.1460   28.4740   19.1350 N.3   154  ARG154     -0.1245
     31  CA        11.1860   29.1600   20.4050 C.3   154  ARG154      0.1563
     32  C         10.7680   30.5860   20.0640 C.2   154  ARG154      0.2260
     33  O         10.9400   31.0440   18.9230 O.2   154  ARG154     -0.2867
     34  CB        12.6040   29.1680   20.9790 C.3   154  ARG154      0.0307
     35  CG        13.1310   27.8090   21.3920 C.3   154  ARG154      0.0489
     36  CD        14.5960   27.9260   21.7700 C.3   154  ARG154      0.2205
     37  NE        15.2760   26.6340   21.7630 N.pl3 154  ARG154     -0.0865
     38  CZ        16.5960   26.4870   21.7230 C.cat 154  ARG154      0.5346
     39  NH1       17.3810   27.5570   21.6880 N.pl3 154  ARG154      0.1354
     40  NH2       17.1310   25.2730   21.7110 N.pl3 154  ARG154      0.1354
     41  N         15.5750   19.8210   34.8690 N.3   213  ASP213     -0.1225
     42  CA        15.1080   20.5460   33.7060 C.3   213  ASP213      0.1805
     43  C         13.7720   21.1930   33.9940 C.2   213  ASP213      0.2598
     44  O         12.7610   20.5020   34.0860 O.2   213  ASP213     -0.2718
     45  CB        14.9690   19.5840   32.5230 C.3   213  ASP213      0.1424
     46  CG        14.2150   20.1990   31.3450 C.2   213  ASP213      0.3668
     47  OD1       14.5860   21.3130   30.9170 O.co2 213  ASP213     -0.2456
     48  OD2       13.2550   19.5600   30.8500 O.co2 213  ASP213     -0.2456
     49  N         13.7600   22.5110   34.1530 N.am  214  THR214     -0.1939
     50  CA        12.4750   23.2140   34.3860 C.3   214  THR214      0.2028
     51  C         11.7230   23.3160   33.0580 C.2   214  THR214      0.2642
     52  O         12.2890   23.6370   32.0200 O.2   214  THR214     -0.2714
     53  CB        12.7090   24.6640   34.9390 C.3   214  THR214      0.1808
     54  OG1       13.3970   24.5880   36.1920 O.3   214  THR214     -0.2208
     55  CG2       11.3550   25.4160   35.1360 C.3   214  THR214      0.0379
     56  N         10.4250   23.0470   33.0950 N.am  215  ARG215     -0.1963
     57  CA         9.6300   23.1550   31.8940 C.3   215  ARG215      0.1729
     58  C          9.4370   24.6390   31.5940 C.2   215  ARG215      0.2616
     59  O          8.9040   25.3690   32.4380 O.2   215  ARG215     -0.2715
     60  CB         8.2670   22.5230   32.1340 C.3   215  ARG215      0.0348
     61  CG         7.3190   22.6600   30.9730 C.3   215  ARG215      0.0492
     62  CD         6.0020   21.9550   31.2800 C.3   215  ARG215      0.2205
     63  NE         5.3050   22.5560   32.4170 N.pl3 215  ARG215     -0.0865
     64  CZ         4.9360   23.8310   32.4770 C.cat 215  ARG215      0.5346
     65  NH1        5.1950   24.6430   31.4610 N.pl3 215  ARG215      0.1354
     66  NH2        4.3160   24.3000   33.5520 N.pl3 215  ARG215      0.1354
     67  N          9.8600   25.0670   30.4090 N.am  216  CYS216     -0.1954
     68  CA         9.7320   26.4630   29.9650 C.3   216  CYS216      0.1843
     69  C         10.0930   27.4480   31.0850 C.2   216  CYS216      0.2625
     70  O          9.2440   28.2290   31.5220 O.2   216  CYS216     -0.2714
     71  CB         8.2870   26.7330   29.5210 C.3   216  CYS216      0.0997
     72  SG         7.6880   25.6560   28.2130 S.3   216  CYS216     -0.0797
     73  N         11.3470   27.4250   31.5380 N.am  217  PHE217     -0.1960
     74  CA        11.7760   28.2840   32.6390 C.3   217  PHE217      0.1771
     75  C         11.3700   29.7590   32.5560 C.2   217  PHE217      0.2619
     76  O         10.8810   30.3250   33.5450 O.2   217  PHE217     -0.2715
     77  CB        13.3160   28.2000   32.8120 C.3   217  PHE217      0.0574
     78  CG        13.8280   28.8140   34.1020 C.ar  217  PHE217     -0.0200
     79  CD1       13.9890   28.0340   35.2440 C.ar  217  PHE217     -0.0042
     80  CD2       14.1390   30.1820   34.1720 C.ar  217  PHE217     -0.0042
     81  CE1       14.4540   28.6050   36.4560 C.ar  217  PHE217     -0.0003
     82  CE2       14.5970   30.7580   35.3520 C.ar  217  PHE217     -0.0003
     83  CZ        14.7580   29.9750   36.5060 C.ar  217  PHE217     -0.0000
     84  N         11.5770   30.3850   31.4030 N.am  218  ASP218     -0.1971
     85  CA        11.2870   31.8070   31.2870 C.3   218  ASP218      0.1709
     86  C          9.8110   32.0580   31.6370 C.2   218  ASP218      0.2293
     87  O          9.4910   33.0550   32.2470 O.2   218  ASP218     -0.2864
     88  CB        11.5520   32.3510   29.8750 C.3   218  ASP218      0.1436
     89  CG        13.0490   32.4740   29.5470 C.2   218  ASP218      0.3671
     90  OD1       13.8580   32.2810   30.4640 O.co2 218  ASP218     -0.2456
     91  OD2       13.4050   32.7750   28.3780 O.co2 218  ASP218     -0.2456
     92  N         18.9280   28.7080   33.2960 N.3   310  ASP310     -0.1225
     93  CA        17.9410   27.7430   33.7460 C.3   310  ASP310      0.1805
     94  C         18.4960   26.3340   33.8850 C.2   310  ASP310      0.2597
     95  O         17.7990   25.4230   34.3110 O.2   310  ASP310     -0.2718
     96  CB        16.7830   27.7160   32.7600 C.3   310  ASP310      0.1424
     97  CG        17.1910   27.1220   31.4290 C.2   310  ASP310      0.3668
     98  OD1       18.1350   27.6580   30.8060 O.co2 310  ASP310     -0.2456
     99  OD2       16.5780   26.1210   31.0240 O.co2 310  ASP310     -0.2456
    100  N         19.7570   26.1340   33.5240 N.am  311  ASP311     -0.1974
    101  CA        20.3270   24.7920   33.6070 C.3   311  ASP311      0.1709
    102  C         20.9490   24.5480   34.9610 C.2   311  ASP311      0.2293
    103  O         21.7300   25.3500   35.4560 O.2   311  ASP311     -0.2864
    104  CB        21.3440   24.5890   32.5080 C.3   311  ASP311      0.1436
    105  CG        20.7530   23.8490   31.3290 C.2   311  ASP311      0.3671
    106  OD1       19.7410   24.3230   30.7740 O.co2 311  ASP311     -0.2456
    107  OD2       21.2850   22.7880   30.9640 O.co2 311  ASP311     -0.2456
@<TRIPOS>BOND
     1    24    23    2
     2    21    22    1
     3    23    22    1
     4    22    25    1
     5    26    25    1
     6    26    27    1
     7    33    32    2
     8    30    31    1
     9    27    28    1
    10    32    31    1
    11     1     2    1
    12    31    34    1
    13    28    29    1
    14     5     2    1
    15     5     6    1
    16    34    35    1
    17     2     3    1
    18    35    36    1
    19    39    38    1
    20    40    38    1
    21    38    37    2
    22    37    36    1
    23     6     7    1
    24    11     9    1
    25     8     9    2
    26     8     7    1
    27     3     4    2
    28     9    10    1
    29    18    17    1
    30    18    19    1
    31    17    16    1
    32    19    20    1
    33    12    13    1
    34    16    13    1
    35    13    14    1
    36    14    15    2
    37    72    71    1
    38    91    89   ar
    39    71    68    1
    40    89    88    1
    41    89    90   ar
    42    88    85    1
    43    68    67    1
    44    68    69    1
    45    67    58   am
    46   106   105   ar
    47    98    97   ar
    48    48    46   ar
    49    47    46   ar
    50   107   105   ar
    51    61    62    1
    52    61    60    1
    53    99    97   ar
    54    69    70    2
    55    69    73   am
    56    62    63    1
    57    85    84    1
    58    85    86    1
    59   105   104    1
    60    46    45    1
    61    84    75   am
    62    97    96    1
    63    65    64    1
    64    73    74    1
    65    58    57    1
    66    58    59    2
    67    86    87    2
    68    57    60    1
    69    57    56    1
    70    52    51    2
    71    63    64    2
    72    64    66    1
    73   104   101    1
    74    45    42    1
    75    75    74    1
    76    75    76    2
    77    74    77    1
    78    96    93    1
    79    77    78    1
    80    51    56   am
    81    51    50    1
    82    92    93    1
    83   100   101    1
    84   100    94   am
    85   101   102    1
    86    42    43    1
    87    42    41    1
    88    93    94    1
    89    94    95    2
    90    43    44    2
    91    43    49   am
    92    78    80   ar
    93    78    79   ar
    94    49    50    1
    95    80    82   ar
    96    50    53    1
    97    53    55    1
    98    53    54    1
    99   102   103    2
   100    79    81   ar
   101    82    83   ar
   102    81    83   ar
