@<TRIPOS>MOLECULE
tmp/1gx6A01.pdb
 99 91 0 0 0
SMALL
GASTEIGER

@<TRIPOS>ATOM
      1  N         15.8950   27.9770   14.1440 N.3   139  GLU139     -0.1245
      2  CA        17.0090   27.1240   14.5610 C.3   139  GLU139      0.1567
      3  C         16.9310   25.7260   13.9420 C.2   139  GLU139      0.2260
      4  O         15.8430   25.2190   13.6740 O.2   139  GLU139     -0.2867
      5  CB        17.0270   27.0080   16.0880 C.3   139  GLU139      0.0388
      6  CG        16.8690   28.3470   16.8130 C.3   139  GLU139      0.1160
      7  CD        16.8200   28.1900   18.3290 C.2   139  GLU139      0.3649
      8  OE1       17.8880   28.0200   18.9530 O.co2 139  GLU139     -0.2457
      9  OE2       15.7080   28.2290   18.8940 O.co2 139  GLU139     -0.2457
     10  N         17.5950   21.5780   13.9040 N.3   141  PHE141     -0.1241
     11  CA        17.6160   20.3990   14.7630 C.3   141  PHE141      0.1605
     12  C         17.4530   19.1350   13.9400 C.2   141  PHE141      0.2264
     13  O         17.2410   19.1940   12.7310 O.2   141  PHE141     -0.2867
     14  CB        16.4600   20.4440   15.7600 C.3   141  PHE141      0.0534
     15  CG        16.4640   21.6540   16.6400 C.ar  141  PHE141     -0.0203
     16  CD1       15.6270   22.7380   16.3670 C.ar  141  PHE141     -0.0042
     17  CD2       17.2990   21.7120   17.7470 C.ar  141  PHE141     -0.0042
     18  CE1       15.6240   23.8630   17.1970 C.ar  141  PHE141     -0.0003
     19  CE2       17.3050   22.8380   18.5860 C.ar  141  PHE141     -0.0003
     20  CZ        16.4650   23.9130   18.3100 C.ar  141  PHE141     -0.0000
     21  N         13.0060   14.0740   16.0870 N.3   144  GLN144     -0.1245
     22  CA        12.9530   13.1460   17.2070 C.3   144  GLN144      0.1566
     23  C         11.6690   12.3500   17.0110 C.2   144  GLN144      0.2260
     24  O         10.6070   12.7240   17.5150 O.2   144  GLN144     -0.2867
     25  CB        12.9070   13.9010   18.5380 C.3   144  GLN144      0.0367
     26  CG        14.1580   14.7080   18.8400 C.3   144  GLN144      0.0905
     27  CD        14.0380   15.5130   20.1240 C.2   144  GLN144      0.2608
     28  OE1       13.1400   16.3510   20.2670 O.2   144  GLN144     -0.2717
     29  NE2       14.9450   15.2650   21.0650 N.am  144  GLN144     -0.0878
     30  N         10.1590   20.1210   16.6490 N.3   151  LYS151     -0.1245
     31  CA         9.8990   21.0320   17.7560 C.3   151  LYS151      0.1561
     32  C          9.3560   22.3630   17.2590 C.2   151  LYS151      0.2260
     33  O          9.7040   22.8170   16.1770 O.2   151  LYS151     -0.2867
     34  CB        11.1890   21.2980   18.5200 C.3   151  LYS151      0.0271
     35  CG        11.6960   20.1090   19.3060 C.3   151  LYS151      0.0035
     36  CD        13.1940   20.1940   19.4940 C.3   151  LYS151      0.0206
     37  CE        13.6230   21.5780   19.9430 C.3   151  LYS151      0.1093
     38  NZ        15.0890   21.6210   20.1420 N.3   151  LYS151     -0.1314
     39  N         11.2050   28.5110   18.9590 N.3   154  ARG154     -0.1245
     40  CA        11.2960   29.1810   20.2440 C.3   154  ARG154      0.1563
     41  C         10.8840   30.6260   19.9640 C.2   154  ARG154      0.2260
     42  O         10.8850   31.0700   18.8060 O.2   154  ARG154     -0.2867
     43  CB        12.7250   29.1310   20.7940 C.3   154  ARG154      0.0307
     44  CG        13.1480   27.7410   21.2790 C.3   154  ARG154      0.0489
     45  CD        14.5030   27.7660   21.9860 C.3   154  ARG154      0.2205
     46  NE        14.8940   26.4390   22.4590 N.pl3 154  ARG154     -0.0865
     47  CZ        15.9310   25.7480   21.9910 C.cat 154  ARG154      0.5346
     48  NH1       16.6910   26.2600   21.0330 N.pl3 154  ARG154      0.1354
     49  NH2       16.2010   24.5380   22.4730 N.pl3 154  ARG154      0.1354
     50  N         23.0480   20.6010   27.9470 N.3   358  SER358     -0.1217
     51  CA        23.2020   19.6880   26.8270 C.3   358  SER358      0.1889
     52  C         24.6130   19.0730   26.7670 C.2   358  SER358      0.2288
     53  O         25.0590   18.6830   25.6870 O.2   358  SER358     -0.2866
     54  CB        22.9050   20.4170   25.5120 C.3   358  SER358      0.2089
     55  OG        21.5660   20.9030   25.4890 O.3   358  SER358     -0.2183
     56  N         29.2010   16.0570   24.4580 N.3   377  ARG377     -0.1231
     57  CA        27.7420   16.1280   24.3230 C.3   377  ARG377      0.1694
     58  C         27.3320   15.2100   23.2040 C.2   377  ARG377      0.2592
     59  O         28.1840   14.7590   22.4410 O.2   377  ARG377     -0.2718
     60  CB        27.2890   17.5600   23.9820 C.3   377  ARG377      0.0321
     61  CG        27.7760   18.1240   22.6260 C.3   377  ARG377      0.0489
     62  CD        26.9590   19.3720   22.2190 C.3   377  ARG377      0.2205
     63  NE        25.6050   18.9720   21.8280 N.pl3 377  ARG377     -0.0865
     64  CZ        24.5280   19.7410   21.9400 C.cat 377  ARG377      0.5346
     65  NH1       24.6430   20.9660   22.4360 N.pl3 377  ARG377      0.1354
     66  NH2       23.3290   19.2700   21.5880 N.pl3 377  ARG377      0.1354
     67  N         26.0320   14.9270   23.1190 N.am  378  ASP378     -0.1974
     68  CA        25.4900   14.1130   22.0440 C.3   378  ASP378      0.1709
     69  C         25.7760   14.9600   20.7840 C.2   378  ASP378      0.2293
     70  O         25.4590   16.1480   20.7450 O.2   378  ASP378     -0.2864
     71  CB        23.9770   13.9180   22.2540 C.3   378  ASP378      0.1436
     72  CG        23.3630   13.0520   21.1900 C.2   378  ASP378      0.3671
     73  OD1       23.2880   13.5110   20.0430 O.co2 378  ASP378     -0.2456
     74  OD2       22.9760   11.9050   21.4940 O.co2 378  ASP378     -0.2456
     75  N         24.4020   14.8790   17.7590 N.3   380  THR380     -0.1203
     76  CA        23.3030   15.0600   16.8280 C.3   380  THR380      0.1994
     77  C         23.0620   16.5000   16.3800 C.2   380  THR380      0.2618
     78  O         23.0750   16.7940   15.1880 O.2   380  THR380     -0.2717
     79  CB        21.9900   14.5150   17.4180 C.3   380  THR380      0.1784
     80  OG1       22.1440   13.1210   17.7100 O.3   380  THR380     -0.2211
     81  CG2       20.8460   14.6950   16.4280 C.3   380  THR380      0.0376
     82  N         22.8310   17.4100   17.3220 N.am  381  THR381     -0.1952
     83  CA        22.5690   18.7790   16.9010 C.3   381  THR381      0.1897
     84  C         23.7870   19.3910   16.2460 C.2   381  THR381      0.2313
     85  O         23.6690   20.0460   15.2050 O.2   381  THR381     -0.2863
     86  CB        22.0430   19.6260   18.0750 C.3   381  THR381      0.1794
     87  OG1       20.7840   19.0810   18.4720 O.3   381  THR381     -0.2208
     88  CG2       21.8290   21.0930   17.6550 C.3   381  THR381      0.0378
     89  N         23.5750   20.7710   12.3450 N.3   385  ARG385     -0.1245
     90  CA        23.8930   22.1510   12.0060 C.3   385  ARG385      0.1563
     91  C         25.0870   22.2510   11.0590 C.2   385  ARG385      0.2260
     92  O         25.1090   23.1110   10.1660 O.2   385  ARG385     -0.2867
     93  CB        24.0950   22.9730   13.2890 C.3   385  ARG385      0.0307
     94  CG        22.7880   23.0160   14.0820 C.3   385  ARG385      0.0489
     95  CD        22.7670   23.9310   15.3050 C.3   385  ARG385      0.2205
     96  NE        21.4200   23.8910   15.8820 N.pl3 385  ARG385     -0.0865
     97  CZ        21.0590   24.4690   17.0250 C.cat 385  ARG385      0.5346
     98  NH1       21.9390   25.1570   17.7310 N.pl3 385  ARG385      0.1354
     99  NH2       19.8220   24.3190   17.4820 N.pl3 385  ARG385      0.1354
@<TRIPOS>BOND
     1    92    91    2
     2    91    90    1
     3    90    89    1
     4    90    93    1
     5    13    12    2
     6    93    94    1
     7     4     3    2
     8    10    11    1
     9    12    11    1
    10     3     2    1
    11    94    95    1
    12     1     2    1
    13     2     5    1
    14    11    14    1
    15    78    77    2
    16    85    84    2
    17    95    96    1
    18    14    15    1
    19    96    97    2
    20    21    22    1
    21     5     6    1
    22    33    32    2
    23    84    83    1
    24    16    15   ar
    25    16    18   ar
    26    77    76    1
    27    77    82   am
    28    81    79    1
    29    15    17   ar
    30    30    31    1
    31     6     7    1
    32    76    79    1
    33    76    75    1
    34    83    82    1
    35    83    86    1
    36    23    22    1
    37    23    24    2
    38    97    99    1
    39    97    98    1
    40    18    20   ar
    41    22    25    1
    42    32    31    1
    43    79    80    1
    44    88    86    1
    45    17    19   ar
    46    31    34    1
    47    86    87    1
    48    20    19   ar
    49     7     9   ar
    50     7     8   ar
    51    34    35    1
    52    25    26    1
    53    42    41    2
    54    26    27    1
    55    39    40    1
    56    35    36    1
    57    36    37    1
    58    37    38    1
    59    41    40    1
    60    73    72   ar
    61    27    28    2
    62    27    29   am
    63    40    43    1
    64    70    69    2
    65    69    68    1
    66    43    44    1
    67    48    47    1
    68    72    74   ar
    69    72    71    1
    70    44    45    1
    71    66    64    1
    72    63    64    2
    73    63    62    1
    74    64    65    1
    75    45    46    1
    76    47    46    2
    77    47    49    1
    78    68    71    1
    79    68    67    1
    80    62    61    1
    81    59    58    2
    82    61    60    1
    83    67    58   am
    84    58    57    1
    85    60    57    1
    86    57    56    1
    87    55    54    1
    88    54    51    1
    89    53    52    2
    90    52    51    1
    91    51    50    1
