@<TRIPOS>MOLECULE
tmp/1gx6A02.pdb
 102 94 0 0 0
SMALL
GASTEIGER

@<TRIPOS>ATOM
      1  N          4.0360   26.8730   20.1660 N.3    46  ARG46      -0.1245
      2  CA         4.8710   27.3810   21.2500 C.3    46  ARG46       0.1563
      3  C          4.0420   28.2600   22.1890 C.2    46  ARG46       0.2260
      4  O          4.1110   28.1050   23.4110 O.2    46  ARG46      -0.2867
      5  CB         6.0590   28.1820   20.6820 C.3    46  ARG46       0.0307
      6  CG         6.9910   28.8030   21.7340 C.3    46  ARG46       0.0489
      7  CD         7.6300   27.7470   22.6340 C.3    46  ARG46       0.2205
      8  NE         8.4690   26.8230   21.8770 N.pl3  46  ARG46      -0.0865
      9  CZ         9.1190   25.7950   22.4140 C.cat  46  ARG46       0.5346
     10  NH1        9.0300   25.5550   23.7190 N.pl3  46  ARG46       0.1354
     11  NH2        9.8550   25.0030   21.6440 N.pl3  46  ARG46       0.1354
     12  N          2.3610   26.2280   24.7020 N.3    49  LYS49      -0.1245
     13  CA         3.1870   25.6550   25.7380 C.3    49  LYS49       0.1561
     14  C          3.6570   26.6500   26.8030 C.2    49  LYS49       0.2260
     15  O          3.6840   26.3190   27.9970 O.2    49  LYS49      -0.2867
     16  CB         4.3940   24.9450   25.1050 C.3    49  LYS49       0.0271
     17  CG         5.2230   24.1560   26.1180 C.3    49  LYS49       0.0035
     18  CD         5.7700   22.8610   25.5360 C.3    49  LYS49       0.0206
     19  CE         6.6100   23.0900   24.2920 C.3    49  LYS49       0.1093
     20  NZ         7.0720   21.7950   23.7140 N.3    49  LYS49      -0.1314
     21  N         13.0060   14.0740   16.0870 N.3   144  GLN144     -0.1245
     22  CA        12.9530   13.1460   17.2070 C.3   144  GLN144      0.1566
     23  C         11.6690   12.3500   17.0110 C.2   144  GLN144      0.2260
     24  O         10.6070   12.7240   17.5150 O.2   144  GLN144     -0.2867
     25  CB        12.9070   13.9010   18.5380 C.3   144  GLN144      0.0367
     26  CG        14.1580   14.7080   18.8400 C.3   144  GLN144      0.0905
     27  CD        14.0380   15.5130   20.1240 C.2   144  GLN144      0.2608
     28  OE1       13.1400   16.3510   20.2670 O.2   144  GLN144     -0.2717
     29  NE2       14.9450   15.2650   21.0650 N.am  144  GLN144     -0.0878
     30  N          8.6750   11.0220   19.4800 N.3   147  LYS147     -0.1245
     31  CA         7.7100   11.9730   20.0170 C.3   147  LYS147      0.1561
     32  C          7.2490   13.0130   19.0010 C.2   147  LYS147      0.2260
     33  O          7.0630   12.6970   17.8260 O.2   147  LYS147     -0.2867
     34  CB         8.2460   12.6620   21.2820 C.3   147  LYS147      0.0271
     35  CG         9.5660   13.3820   21.1480 C.3   147  LYS147      0.0035
     36  CD         9.8390   14.1730   22.4190 C.3   147  LYS147      0.0206
     37  CE        11.2510   14.7260   22.4510 C.3   147  LYS147      0.1093
     38  NZ        12.2720   13.6380   22.4750 N.3   147  LYS147     -0.1314
     39  N         10.1590   20.1210   16.6490 N.3   151  LYS151     -0.1231
     40  CA         9.8990   21.0320   17.7560 C.3   151  LYS151      0.1678
     41  C          9.3560   22.3630   17.2590 C.2   151  LYS151      0.2434
     42  O          9.7040   22.8170   16.1770 O.2   151  LYS151     -0.2733
     43  CB        11.1890   21.2980   18.5200 C.3   151  LYS151      0.0284
     44  CG        11.6960   20.1090   19.3060 C.3   151  LYS151      0.0035
     45  CD        13.1940   20.1940   19.4940 C.3   151  LYS151      0.0206
     46  CE        13.6230   21.5780   19.9430 C.3   151  LYS151      0.1093
     47  NZ        15.0890   21.6210   20.1420 N.3   151  LYS151     -0.1314
     48  N          8.4830   23.0030   18.0400 N.am  152  PRO152     -0.2729
     49  CA         7.9840   24.2890   17.5530 C.3   152  PRO152      0.1401
     50  C          9.0690   25.3460   17.7730 C.2   152  PRO152      0.2269
     51  O          9.9520   25.1760   18.6140 O.2   152  PRO152     -0.2865
     52  CB         6.7350   24.5170   18.4020 C.3   152  PRO152      0.0296
     53  CG         7.0760   23.8540   19.6880 C.3   152  PRO152      0.0237
     54  CD         7.7710   22.5770   19.2580 C.3   152  PRO152      0.0939
     55  N         11.2050   28.5110   18.9590 N.3   154  ARG154     -0.1245
     56  CA        11.2960   29.1810   20.2440 C.3   154  ARG154      0.1563
     57  C         10.8840   30.6260   19.9640 C.2   154  ARG154      0.2260
     58  O         10.8850   31.0700   18.8060 O.2   154  ARG154     -0.2867
     59  CB        12.7250   29.1310   20.7940 C.3   154  ARG154      0.0307
     60  CG        13.1480   27.7410   21.2790 C.3   154  ARG154      0.0489
     61  CD        14.5030   27.7660   21.9860 C.3   154  ARG154      0.2205
     62  NE        14.8940   26.4390   22.4590 N.pl3 154  ARG154     -0.0865
     63  CZ        15.9310   25.7480   21.9910 C.cat 154  ARG154      0.5346
     64  NH1       16.6910   26.2600   21.0330 N.pl3 154  ARG154      0.1354
     65  NH2       16.2010   24.5380   22.4730 N.pl3 154  ARG154      0.1354
     66  N         16.0160   20.5840   35.0280 N.3   213  ASP213     -0.1239
     67  CA        15.7690   21.6100   34.0530 C.3   213  ASP213      0.1674
     68  C         14.2810   21.8990   34.1380 C.2   213  ASP213      0.2266
     69  O         13.4480   20.9910   34.1620 O.2   213  ASP213     -0.2867
     70  CB        16.1470   21.1970   32.6370 C.3   213  ASP213      0.1410
     71  CG        16.0150   22.3610   31.6650 C.2   213  ASP213      0.3668
     72  OD1       14.8670   22.6900   31.3070 O.co2 213  ASP213     -0.2456
     73  OD2       17.0490   22.9640   31.2930 O.co2 213  ASP213     -0.2456
     74  N         10.5670   23.2090   32.9920 N.3   215  ARG215     -0.1231
     75  CA         9.7780   23.2800   31.7740 C.3   215  ARG215      0.1694
     76  C          9.4690   24.7690   31.5750 C.2   215  ARG215      0.2592
     77  O          8.9730   25.4090   32.4930 O.2   215  ARG215     -0.2718
     78  CB         8.4540   22.5240   31.9440 C.3   215  ARG215      0.0321
     79  CG         7.5960   22.5240   30.6900 C.3   215  ARG215      0.0489
     80  CD         6.2740   21.8050   30.9310 C.3   215  ARG215      0.2205
     81  NE         5.3200   22.6470   31.6500 N.pl3 215  ARG215     -0.0865
     82  CZ         4.6270   23.6390   31.0910 C.cat 215  ARG215      0.5346
     83  NH1        4.7730   23.9190   29.7970 N.pl3 215  ARG215      0.1354
     84  NH2        3.7840   24.3530   31.8280 N.pl3 215  ARG215      0.1354
     85  N          9.7690   25.2980   30.3970 N.am  216  CYS216     -0.1970
     86  CA         9.5350   26.7020   30.0650 C.3   216  CYS216      0.1712
     87  C          9.9190   27.6430   31.2030 C.2   216  CYS216      0.2296
     88  O          9.0820   28.4080   31.6870 O.2   216  CYS216     -0.2864
     89  CB         8.0510   26.9020   29.7140 C.3   216  CYS216      0.0983
     90  SG         7.4710   25.8510   28.3650 S.3   216  CYS216     -0.0798
     91  N         10.7370   19.5490   33.2480 N.3   342  GLY342     -0.1210
     92  CA        10.2770   19.0410   31.9660 C.3   342  GLY342      0.1956
     93  C         10.1310   17.5410   32.1700 C.2   342  GLY342      0.2611
     94  O          9.0940   16.9460   31.8660 O.2   342  GLY342     -0.2717
     95  N         11.1800   16.9280   32.7020 N.am  343  ASP343     -0.1973
     96  CA        11.1720   15.4960   32.9940 C.3   343  ASP343      0.1709
     97  C         11.5900   15.3910   34.4460 C.2   343  ASP343      0.2293
     98  O         12.4910   16.1080   34.8750 O.2   343  ASP343     -0.2864
     99  CB        12.1920   14.7500   32.1300 C.3   343  ASP343      0.1436
    100  CG        12.0140   15.0170   30.6440 C.2   343  ASP343      0.3671
    101  OD1       13.0230   15.3560   29.9840 O.co2 343  ASP343     -0.2456
    102  OD2       10.8730   14.8870   30.1400 O.co2 343  ASP343     -0.2456
@<TRIPOS>BOND
     1    21    22    1
     2    42    41    2
     3    39    40    1
     4    23    22    1
     5    23    24    2
     6    22    25    1
     7    41    40    1
     8    41    48   am
     9    49    50    1
    10    49    48    1
    11    49    52    1
    12    40    43    1
    13    50    51    2
    14    33    32    2
    15    48    54    1
    16    52    53    1
    17    43    44    1
    18    25    26    1
    19    58    57    2
    20    26    27    1
    21    55    56    1
    22    32    31    1
    23    54    53    1
    24    44    45    1
    25    30    31    1
    26    45    46    1
    27    46    47    1
    28    57    56    1
    29    31    34    1
    30    27    28    2
    31    27    29   am
    32     1     2    1
    33    56    59    1
    34     5     2    1
    35     5     6    1
    36    59    60    1
    37    64    63    1
    38    35    34    1
    39    35    36    1
    40     2     3    1
    41    60    61    1
    42    11     9    1
    43     6     7    1
    44     8     9    2
    45     8     7    1
    46    61    62    1
    47    63    62    2
    48    63    65    1
    49     3     4    2
    50     9    10    1
    51    36    37    1
    52    37    38    1
    53    20    19    1
    54    19    18    1
    55    12    13    1
    56    16    13    1
    57    16    17    1
    58    18    17    1
    59    13    14    1
    60    14    15    2
    61    90    89    1
    62    89    86    1
    63    83    82    1
    64   101   100   ar
    65    86    85    1
    66    86    87    1
    67   102   100   ar
    68    85    76   am
    69   100    99    1
    70    79    80    1
    71    79    78    1
    72    80    81    1
    73    82    81    2
    74    82    84    1
    75    87    88    2
    76    73    71   ar
    77    72    71   ar
    78    76    75    1
    79    76    77    2
    80    71    70    1
    81    75    78    1
    82    75    74    1
    83    94    93    2
    84    92    93    1
    85    92    91    1
    86    99    96    1
    87    93    95   am
    88    70    67    1
    89    95    96    1
    90    96    97    1
    91    67    68    1
    92    67    66    1
    93    68    69    2
    94    97    98    2
