@<TRIPOS>MOLECULE
tmp/1gx9A00.pdb
 142 129 0 0 0
SMALL
GASTEIGER

@<TRIPOS>ATOM
      1  N         22.6630   44.5260   64.7140 N.3    37  PRO37      -0.2102
      2  CA        22.4090   44.3750   63.2830 C.3    37  PRO37       0.1504
      3  C         21.3030   45.2730   62.7420 C.2    37  PRO37       0.2575
      4  O         21.5650   46.1330   61.8940 O.2    37  PRO37      -0.2718
      5  CB        21.9700   42.9080   63.1670 C.3    37  PRO37       0.0282
      6  CG        22.6020   42.2200   64.3290 C.3    37  PRO37       0.0208
      7  CD        22.7120   43.2340   65.4290 C.3    37  PRO37       0.0893
      8  N         20.0590   45.1050   63.1820 N.am   38  LEU38      -0.1980
      9  CA        18.9520   45.8340   62.5720 C.3    38  LEU38       0.1596
     10  C         18.5800   47.1280   63.2820 C.2    38  LEU38       0.2287
     11  O         17.4290   47.5870   63.2020 O.2    38  LEU38      -0.2864
     12  CB        17.7200   44.9180   62.5260 C.3    38  LEU38       0.0297
     13  CG        17.6130   44.0310   61.2830 C.3    38  LEU38       0.0022
     14  CD1       18.9600   43.9340   60.5920 C.3    38  LEU38       0.0001
     15  CD2       17.0830   42.6580   61.6600 C.3    38  LEU38       0.0001
     16  N         18.6910   50.4190   62.8280 N.3    40  VAL40      -0.1245
     17  CA        18.8730   51.4670   61.8310 C.3    40  VAL40       0.1561
     18  C         17.8680   52.5970   62.0210 C.2    40  VAL40       0.2260
     19  O         16.7250   52.3550   62.4090 O.2    40  VAL40      -0.2867
     20  CB        18.7550   50.9070   60.3990 C.3    40  VAL40       0.0252
     21  CG1       19.7730   49.7930   60.1750 C.3    40  VAL40       0.0019
     22  CG2       17.3530   50.3950   60.1110 C.3    40  VAL40       0.0019
     23  N         15.9080   55.7250   60.1440 N.3    42  VAL42      -0.1245
     24  CA        15.4770   56.2290   58.8540 C.3    42  VAL42       0.1561
     25  C         15.5960   57.7430   58.7470 C.2    42  VAL42       0.2260
     26  O         14.9560   58.4590   59.5150 O.2    42  VAL42      -0.2867
     27  CB        14.0070   55.8350   58.6060 C.3    42  VAL42       0.0252
     28  CG1       13.5100   56.4390   57.3040 C.3    42  VAL42       0.0019
     29  CG2       13.8750   54.3210   58.5930 C.3    42  VAL42       0.0019
     30  N         16.1190   53.9290   50.4980 N.3    55  ILE55      -0.1245
     31  CA        15.9650   54.2610   51.9050 C.3    55  ILE55       0.1561
     32  C         17.2200   54.9300   52.4490 C.2    55  ILE55       0.2260
     33  O         18.3270   54.4280   52.2750 O.2    55  ILE55      -0.2867
     34  CB        15.6900   53.0190   52.7680 C.3    55  ILE55       0.0252
     35  CG1       14.4630   52.2120   52.3340 C.3    55  ILE55       0.0019
     36  CG2       15.5860   53.3890   54.2390 C.3    55  ILE55       0.0019
     37  CD1       14.5180   50.7830   52.8300 C.3    55  ILE55       0.0001
     38  N         19.2280   56.0300   55.8270 N.3    57  LEU57      -0.1245
     39  CA        19.2040   55.6920   57.2480 C.3    57  LEU57       0.1561
     40  C         20.5520   55.9020   57.9160 C.2    57  LEU57       0.2260
     41  O         21.6230   55.7320   57.3370 O.2    57  LEU57      -0.2867
     42  CB        18.7490   54.2350   57.4240 C.3    57  LEU57       0.0270
     43  CG        19.4810   53.1700   56.6080 C.3    57  LEU57       0.0019
     44  CD1       20.4130   52.3330   57.4740 C.3    57  LEU57       0.0001
     45  CD2       18.4940   52.2600   55.8900 C.3    57  LEU57       0.0001
     46  N         23.2690   54.6620   60.9270 N.3    59  LYS59      -0.1245
     47  CA        23.5960   53.4050   61.5850 C.3    59  LYS59       0.1561
     48  C         24.9040   53.5150   62.3650 C.2    59  LYS59       0.2260
     49  O         25.9310   53.8710   61.7870 O.2    59  LYS59      -0.2867
     50  CB        23.7180   52.2670   60.5690 C.3    59  LYS59       0.0271
     51  CG        23.1260   50.9570   61.0620 C.3    59  LYS59       0.0035
     52  CD        24.2160   49.9570   61.4010 C.3    59  LYS59       0.0206
     53  CE        23.6660   48.5390   61.3900 C.3    59  LYS59       0.1093
     54  NZ        22.9750   48.2060   62.6700 N.3    59  LYS59      -0.1314
     55  N         28.2080   52.4860   63.7000 N.3    61  GLU61      -0.1245
     56  CA        29.1620   51.4830   63.2340 C.3    61  GLU61       0.1567
     57  C         30.5740   51.8260   63.6990 C.2    61  GLU61       0.2260
     58  O         30.9290   53.0060   63.6850 O.2    61  GLU61      -0.2867
     59  CB        29.1270   51.3800   61.7070 C.3    61  GLU61       0.0388
     60  CG        28.4590   50.1340   61.1590 C.3    61  GLU61       0.1160
     61  CD        28.2610   50.1680   59.6570 C.2    61  GLU61       0.3649
     62  OE1       28.4370   51.2470   59.0500 O.co2  61  GLU61      -0.2457
     63  OE2       27.9220   49.1110   59.0800 O.co2  61  GLU61      -0.2457
     64  N         23.9590   55.7560   55.7490 N.3    68  LYS68      -0.1245
     65  CA        23.8820   54.6390   54.8170 C.3    68  LYS68       0.1561
     66  C         22.7280   54.8280   53.8330 C.2    68  LYS68       0.2260
     67  O         21.7210   55.4400   54.2050 O.2    68  LYS68      -0.2867
     68  CB        23.7010   53.3240   55.5710 C.3    68  LYS68       0.0271
     69  CG        24.7580   52.2680   55.2950 C.3    68  LYS68       0.0035
     70  CD        24.9560   51.3640   56.5030 C.3    68  LYS68       0.0206
     71  CE        26.1440   50.4330   56.3170 C.3    68  LYS68       0.1093
     72  NZ        27.4220   51.0440   56.7760 N.3    68  LYS68      -0.1314
     73  N         20.1770   52.6970   51.0630 N.3    70  ILE70      -0.1245
     74  CA        19.7500   51.3730   50.6260 C.3    70  ILE70       0.1561
     75  C         18.7120   51.4200   49.5110 C.2    70  ILE70       0.2260
     76  O         17.8740   52.3150   49.4690 O.2    70  ILE70      -0.2867
     77  CB        19.1380   50.5690   51.7930 C.3    70  ILE70       0.0252
     78  CG1       19.9570   50.6280   53.0790 C.3    70  ILE70       0.0019
     79  CG2       18.8960   49.1360   51.3620 C.3    70  ILE70       0.0019
     80  CD1       21.4220   50.2920   52.8780 C.3    70  ILE70       0.0001
     81  N         15.4640   44.2820   49.2130 N.3    83  ILE83      -0.1245
     82  CA        16.7390   44.9960   49.1410 C.3    83  ILE83       0.1561
     83  C         17.8560   44.0080   48.7700 C.2    83  ILE83       0.2260
     84  O         18.0220   42.9840   49.4250 O.2    83  ILE83      -0.2867
     85  CB        17.1190   45.7450   50.4270 C.3    83  ILE83       0.0252
     86  CG1       17.8440   44.8870   51.4660 C.3    83  ILE83       0.0019
     87  CG2       15.9030   46.4210   51.0450 C.3    83  ILE83       0.0019
     88  CD1       16.9250   43.9950   52.2700 C.3    83  ILE83       0.0001
     89  N         16.3850   39.4140   51.6830 N.3    89  ASN89      -0.1240
     90  CA        15.6750   40.1730   52.7120 C.3    89  ASN89       0.1653
     91  C         14.6130   41.0910   52.1080 C.2    89  ASN89       0.2266
     92  O         14.9140   41.9200   51.2530 O.2    89  ASN89      -0.2867
     93  CB        16.6690   40.9710   53.5600 C.3    89  ASN89       0.1155
     94  CG        16.9910   40.3040   54.8810 C.2    89  ASN89       0.2627
     95  OD1       17.4350   39.1580   54.9240 O.2    89  ASN89      -0.2716
     96  ND2       16.7700   41.0050   55.9880 N.am   89  ASN89      -0.0877
     97  N         11.2770   43.8050   52.3580 N.3    91  VAL91      -0.1245
     98  CA        10.6910   44.9130   53.1090 C.3    91  VAL91       0.1561
     99  C          9.1890   44.9950   52.8570 C.2    91  VAL91       0.2260
    100  O          8.7620   44.9890   51.7040 O.2    91  VAL91      -0.2867
    101  CB        11.3690   46.2500   52.7610 C.3    91  VAL91       0.0252
    102  CG1       10.5200   47.4250   53.2210 C.3    91  VAL91       0.0019
    103  CG2       12.7530   46.3170   53.3860 C.3    91  VAL91       0.0019
    104  N          6.3620   49.6460   58.7740 N.3   104  PHE104     -0.1227
    105  CA         6.9020   48.6730   57.8220 C.3   104  PHE104      0.1736
    106  C          7.9250   47.7620   58.5020 C.2   104  PHE104      0.2596
    107  O          8.6430   48.1550   59.4140 O.2   104  PHE104     -0.2718
    108  CB         7.4720   49.3380   56.5840 C.3   104  PHE104      0.0547
    109  CG         8.7150   50.1820   56.6920 C.ar  104  PHE104     -0.0202
    110  CD1        9.0980   50.7790   57.8810 C.ar  104  PHE104     -0.0042
    111  CD2        9.4950   50.3720   55.5590 C.ar  104  PHE104     -0.0042
    112  CE1       10.2400   51.5520   57.9390 C.ar  104  PHE104     -0.0003
    113  CE2       10.6400   51.1480   55.6030 C.ar  104  PHE104     -0.0003
    114  CZ        11.0080   51.7350   56.8020 C.ar  104  PHE104     -0.0000
    115  N          7.9470   46.5230   58.0300 N.am  105  CYS105     -0.1956
    116  CA         8.7460   45.4490   58.5970 C.3   105  CYS105      0.1843
    117  C          9.7930   44.9200   57.6280 C.2   105  CYS105      0.2625
    118  O          9.6850   45.0480   56.4080 O.2   105  CYS105     -0.2714
    119  CB         7.8380   44.2900   59.0150 C.3   105  CYS105      0.0997
    120  SG         6.6290   44.6900   60.3000 S.3   105  CYS105     -0.0797
    121  N         10.8310   44.3000   58.1850 N.am  106  MET106     -0.1977
    122  CA        11.8430   43.6960   57.3210 C.3   106  MET106      0.1605
    123  C         12.1280   42.2820   57.8090 C.2   106  MET106      0.2287
    124  O         12.4270   42.0730   58.9850 O.2   106  MET106     -0.2864
    125  CB        13.1040   44.5500   57.2840 C.3   106  MET106      0.0413
    126  CG        14.0010   44.2570   56.0940 C.3   106  MET106      0.0598
    127  SD        15.6790   43.8400   56.6010 S.3   106  MET106     -0.1393
    128  CE        15.3850   42.7560   57.9910 C.3   106  MET106      0.0692
    129  N         12.2590   42.5480   61.9940 N.3   117  ALA117     -0.1245
    130  CA        12.2370   43.7980   62.7400 C.3   117  ALA117      0.1562
    131  C         11.2420   44.7560   62.0800 C.2   117  ALA117      0.2260
    132  O         11.2250   44.8250   60.8540 O.2   117  ALA117     -0.2867
    133  CB        13.6010   44.4570   62.8250 C.3   117  ALA117      0.0290
    134  N          9.3240   48.8180   62.3920 N.3   119  GLN119     -0.1245
    135  CA         9.5340   50.1750   62.8570 C.3   119  GLN119      0.1566
    136  C          8.2220   50.9460   62.7210 C.2   119  GLN119      0.2260
    137  O          7.3720   50.5590   61.9290 O.2   119  GLN119     -0.2867
    138  CB        10.6200   50.9190   62.0860 C.3   119  GLN119      0.0367
    139  CG        12.0350   50.3990   62.2760 C.3   119  GLN119      0.0905
    140  CD        13.0780   51.4740   62.0160 C.2   119  GLN119      0.2608
    141  OE1       12.7580   52.6010   61.6420 O.2   119  GLN119     -0.2717
    142  NE2       14.3500   51.1420   62.2150 N.am  119  GLN119     -0.0878
@<TRIPOS>BOND
     1    83    82    1
     2    83    84    2
     3    82    81    1
     4    82    85    1
     5    76    75    2
     6    75    74    1
     7    85    87    1
     8    85    86    1
     9    30    31    1
    10    74    73    1
    11    74    77    1
    12    92    91    2
    13    79    77    1
    14    86    88    1
    15    89    90    1
    16   100    99    2
    17    77    78    1
    18    31    32    1
    19    31    34    1
    20    91    90    1
    21    33    32    2
    22    35    34    1
    23    35    37    1
    24    97    98    1
    25    90    93    1
    26   101    98    1
    27   101   102    1
    28   101   103    1
    29    34    36    1
    30    99    98    1
    31    80    78    1
    32    93    94    1
    33    66    67    2
    34    66    65    1
    35    65    68    1
    36    65    64    1
    37    94    95    2
    38    94    96   am
    39    69    68    1
    40    69    70    1
    41   111   113   ar
    42   111   109   ar
    43   113   114   ar
    44    38    39    1
    45    45    43    1
    46   126   127    1
    47   126   125    1
    48    71    70    1
    49    71    72    1
    50   118   117    2
    51   108   109    1
    52   108   105    1
    53   127   128    1
    54    43    42    1
    55    43    44    1
    56   109   110   ar
    57   114   112   ar
    58    39    42    1
    59    39    40    1
    60   125   122    1
    61    28    27    1
    62   122   123    1
    63   122   121    1
    64    41    40    2
    65   117   121   am
    66   117   116    1
    67   123   124    2
    68   105   106    1
    69   105   104    1
    70   110   112   ar
    71   115   106   am
    72   115   116    1
    73   106   107    2
    74    29    27    1
    75   116   119    1
    76    27    24    1
    77    25    24    1
    78    25    26    2
    79    24    23    1
    80   119   120    1
    81    62    61   ar
    82    63    61   ar
    83    61    60    1
    84    22    20    1
    85    21    20    1
    86    20    17    1
    87    50    51    1
    88    50    47    1
    89    14    13    1
    90   132   131    2
    91    46    47    1
    92    51    52    1
    93    60    59    1
    94    13    15    1
    95    13    12    1
    96    53    52    1
    97    53    54    1
    98    47    48    1
    99   141   140    2
   100    59    56    1
   101    49    48    2
   102    17    18    1
   103    17    16    1
   104     4     3    2
   105   137   136    2
   106   129   130    1
   107   140   142   am
   108   140   139    1
   109    18    19    2
   110   131   130    1
   111   138   139    1
   112   138   135    1
   113   134   135    1
   114    12     9    1
   115     9     8    1
   116     9    10    1
   117   136   135    1
   118   130   133    1
   119     3     8   am
   120     3     2    1
   121     5     2    1
   122     5     6    1
   123    11    10    2
   124    56    57    1
   125    56    55    1
   126     2     1    1
   127    58    57    2
   128     6     7    1
   129     1     7    1
