@<TRIPOS>MOLECULE
tmp/1gxbC00.pdb
 108 104 0 0 0
SMALL
GASTEIGER

@<TRIPOS>ATOM
      1  N         23.2730   51.6550   93.5070 N.3    77  THR77      -0.1203
      2  CA        24.1470   52.5000   92.6880 C.3    77  THR77       0.1994
      3  C         24.0700   53.8800   93.3350 C.2    77  THR77       0.2618
      4  O         23.1370   54.6070   93.0960 O.2    77  THR77      -0.2717
      5  CB        23.6360   52.6100   91.2330 C.3    77  THR77       0.1784
      6  OG1       22.2890   53.0850   91.2410 O.3    77  THR77      -0.2211
      7  CG2       23.6690   51.2660   90.5420 C.3    77  THR77       0.0376
      8  N         25.0460   54.2880   94.1260 N.am   78  ALA78      -0.1965
      9  CA        24.9130   55.5820   94.7840 C.3    78  ALA78       0.1728
     10  C         25.5520   56.8190   94.1610 C.2    78  ALA78       0.2616
     11  O         25.8460   56.8660   92.9620 O.2    78  ALA78      -0.2715
     12  CB        25.3780   55.4510   96.1880 C.3    78  ALA78       0.0334
     13  N         25.7370   57.8270   95.0140 N.am   79  GLY79      -0.1955
     14  CA        26.3440   59.0880   94.6280 C.3    79  GLY79       0.1869
     15  C         26.8840   59.8070   95.8550 C.2    79  GLY79       0.2309
     16  O         27.5940   60.8140   95.7650 O.2    79  GLY79      -0.2863
     17  N         23.8810   66.7570   86.0200 N.3    83  THR83      -0.1203
     18  CA        23.8190   65.7580   84.9650 C.3    83  THR83       0.1994
     19  C         22.5610   64.9200   85.1280 C.2    83  THR83       0.2618
     20  O         21.7970   65.1430   86.0530 O.2    83  THR83      -0.2717
     21  CB        25.0520   64.8600   85.0390 C.3    83  THR83       0.1784
     22  OG1       25.3840   64.4170   83.7260 O.3    83  THR83      -0.2211
     23  CG2       24.8010   63.6500   85.9480 C.3    83  THR83       0.0376
     24  N         22.3400   63.9580   84.2380 N.am   84  VAL84      -0.1965
     25  CA        21.1510   63.1140   84.3360 C.3    84  VAL84       0.1727
     26  C         21.3110   62.0520   85.4080 C.2    84  VAL84       0.2616
     27  O         22.4090   61.5560   85.6510 O.2    84  VAL84      -0.2715
     28  CB        20.8290   62.4040   83.0030 C.3    84  VAL84       0.0290
     29  CG1       20.6970   63.4140   81.9230 C.3    84  VAL84       0.0023
     30  CG2       21.9040   61.3980   82.6580 C.3    84  VAL84       0.0023
     31  N         20.1980   61.7040   86.0400 N.am   85  ASN85      -0.1958
     32  CA        20.1940   60.7090   87.0920 C.3    85  ASN85       0.1819
     33  C         20.4980   59.3060   86.5780 C.2    85  ASN85       0.2621
     34  O         19.6410   58.4290   86.6590 O.2    85  ASN85      -0.2715
     35  CB        18.8370   60.7300   87.8220 C.3    85  ASN85       0.1195
     36  CG        19.1420   60.9960   89.2590 C.2    85  ASN85       0.2630
     37  OD1       19.4280   62.1530   89.5850 O.2    85  ASN85      -0.2716
     38  ND2       19.2720   59.9200   90.0640 N.am   85  ASN85      -0.0877
     39  N         21.7090   59.1050   86.0540 N.am   86  VAL86      -0.1963
     40  CA        22.1400   57.7960   85.5600 C.3    86  VAL86       0.1727
     41  C         22.0140   56.6880   86.5890 C.2    86  VAL86       0.2617
     42  O         21.5100   55.6090   86.2800 O.2    86  VAL86      -0.2715
     43  CB        23.6320   57.7520   85.1350 C.3    86  VAL86       0.0290
     44  CG1       23.7430   57.8180   83.6380 C.3    86  VAL86       0.0023
     45  CG2       24.4210   58.8610   85.8170 C.3    86  VAL86       0.0023
     46  N         22.5120   56.9390   87.7960 N.am   87  SER87      -0.1936
     47  CA        22.4570   55.9390   88.8520 C.3    87  SER87       0.2055
     48  C         21.0790   55.2910   88.8780 C.2    87  SER87       0.2643
     49  O         20.9580   54.0710   88.9120 O.2    87  SER87      -0.2714
     50  CB        22.7450   56.5860   90.2140 C.3    87  SER87       0.2130
     51  OG        23.9820   57.2670   90.2190 O.3    87  SER87      -0.2179
     52  N         20.0460   56.1260   88.8450 N.am   88  THR88      -0.1950
     53  CA        18.6740   55.6650   88.8880 C.3    88  THR88       0.1897
     54  C         18.2810   54.8890   87.6470 C.2    88  THR88       0.2313
     55  O         17.7490   53.7780   87.7440 O.2    88  THR88      -0.2863
     56  CB        17.7200   56.8310   89.0320 C.3    88  THR88       0.1794
     57  OG1       18.0430   57.5640   90.2210 O.3    88  THR88      -0.2208
     58  CG2       16.2710   56.3240   89.0860 C.3    88  THR88       0.0378
     59  N         17.7960   50.7720   95.9270 N.3   102  LYS102     -0.1231
     60  CA        18.3270   52.0920   95.6260 C.3   102  LYS102      0.1693
     61  C         18.1070   53.0770   96.7600 C.2   102  LYS102      0.2592
     62  O         16.9750   53.4050   97.1130 O.2   102  LYS102     -0.2718
     63  CB        17.6720   52.6170   94.3320 C.3   102  LYS102      0.0285
     64  CG        18.1850   53.9460   93.8360 C.3   102  LYS102      0.0035
     65  CD        19.6620   53.8620   93.4840 C.3   102  LYS102      0.0206
     66  CE        20.1240   55.1040   92.7520 C.3   102  LYS102      0.1093
     67  NZ        19.8330   56.3170   93.5440 N.3   102  LYS102     -0.1314
     68  N         19.2040   53.5290   97.3480 N.am  103  HIS103     -0.1962
     69  CA        19.1310   54.4920   98.4230 C.3   103  HIS103      0.1787
     70  C         19.0990   55.8090   97.6640 C.2   103  HIS103      0.2620
     71  O         19.7300   55.9270   96.6070 O.2   103  HIS103     -0.2715
     72  CB        20.3880   54.4130   99.2980 C.3   103  HIS103      0.0785
     73  CG        20.2620   55.1210  100.6100 C.ar  103  HIS103      0.0821
     74  ND1       21.3530   55.4850  101.3670 N.ar  103  HIS103     -0.2267
     75  CD2       19.1720   55.5220  101.3040 C.ar  103  HIS103      0.1154
     76  CE1       20.9410   56.0850  102.4700 C.ar  103  HIS103      0.1986
     77  NE2       19.6220   56.1190  102.4570 N.ar  103  HIS103     -0.2212
     78  N         18.3640   56.7940   98.1720 N.am  104  GLY104     -0.1954
     79  CA        18.3190   58.0670   97.4740 C.3   104  GLY104      0.1869
     80  C         17.5940   59.1620   98.2210 C.2   104  GLY104      0.2309
     81  O         17.0000   58.9130   99.2680 O.2   104  GLY104     -0.2863
     82  N         17.6160   65.2440   91.9620 N.3   113  GLY113     -0.1210
     83  CA        17.6950   64.0710   92.8240 C.3   113  GLY113      0.1956
     84  C         17.0130   62.7900   92.3810 C.2   113  GLY113      0.2612
     85  O         15.9340   62.8160   91.7930 O.2   113  GLY113     -0.2717
     86  N         17.6190   61.6510   92.6920 N.am  114  SER114     -0.1952
     87  CA        17.0380   60.4020   92.2570 C.3   114  SER114      0.1924
     88  C         15.6080   60.2490   92.7340 C.2   114  SER114      0.2314
     89  O         14.7800   59.6620   92.0350 O.2   114  SER114     -0.2863
     90  CB        17.8900   59.2170   92.7170 C.3   114  SER114      0.2116
     91  OG        17.6000   58.8750   94.0530 O.3   114  SER114     -0.2180
     92  N         30.3610   62.2330   90.1710 N.3   219  ASP219     -0.1225
     93  CA        30.1710   61.0710   91.0220 C.3   219  ASP219      0.1805
     94  C         29.6420   59.9070   90.1970 C.2   219  ASP219      0.2597
     95  O         28.7740   59.1600   90.6390 O.2   219  ASP219     -0.2718
     96  CB        29.1840   61.4230   92.1460 C.3   219  ASP219      0.1424
     97  CG        27.7540   61.6380   91.6380 C.2   219  ASP219      0.3668
     98  OD1       27.5850   62.1240   90.4970 O.co2 219  ASP219     -0.2456
     99  OD2       26.7980   61.3410   92.3830 O.co2 219  ASP219     -0.2456
    100  N         30.1730   59.7620   88.9910 N.am  220  GLU220     -0.1979
    101  CA        29.7470   58.6990   88.0760 C.3   220  GLU220      0.1602
    102  C         30.8730   58.3050   87.1070 C.2   220  GLU220      0.2287
    103  O         31.9350   58.9240   87.0820 O.2   220  GLU220     -0.2864
    104  CB        28.5150   59.1560   87.2600 C.3   220  GLU220      0.0415
    105  CG        27.1480   58.7240   87.8110 C.3   220  GLU220      0.1163
    106  CD        26.4650   59.7740   88.6670 C.2   220  GLU220      0.3649
    107  OE1       26.4460   60.9570   88.2580 O.co2 220  GLU220     -0.2457
    108  OE2       25.9300   59.4120   89.7390 O.co2 220  GLU220     -0.2457
@<TRIPOS>BOND
     1    29    28    1
     2    30    28    1
     3    28    25    1
     4    44    43    1
     5    22    21    1
     6    24    25    1
     7    24    19   am
     8    25    26    1
     9    18    21    1
    10    18    19    1
    11    18    17    1
    12    21    23    1
    13    19    20    2
    14    43    40    1
    15    43    45    1
    16    26    27    2
    17    26    31   am
    18    40    39    1
    19    40    41    1
    20    31    32    1
    21    39    33   am
    22    42    41    2
    23    33    34    2
    24    33    32    1
    25    41    46   am
    26   103   102    2
    27    32    35    1
    28   102   101    1
    29   104   105    1
    30   104   101    1
    31    54    55    2
    32    54    53    1
    33    46    47    1
    34   105   106    1
    35    35    36    1
    36   101   100    1
    37   107   106   ar
    38   106   108   ar
    39    52    48   am
    40    52    53    1
    41    47    48    1
    42    47    50    1
    43    48    49    2
    44    53    56    1
    45   100    94   am
    46    56    58    1
    47    56    57    1
    48    36    37    2
    49    36    38   am
    50    92    93    1
    51    94    95    2
    52    94    93    1
    53    50    51    1
    54    98    97   ar
    55     7     5    1
    56    93    96    1
    57     5     6    1
    58     5     2    1
    59    97    96    1
    60    97    99   ar
    61    85    84    2
    62    82    83    1
    63    89    88    2
    64    87    86    1
    65    87    90    1
    66    87    88    1
    67    84    86   am
    68    84    83    1
    69     2     3    1
    70     2     1    1
    71    90    91    1
    72    66    65    1
    73    66    67    1
    74    11    10    2
    75     4     3    2
    76     3     8   am
    77    65    64    1
    78    64    63    1
    79     8     9    1
    80    10     9    1
    81    10    13   am
    82    63    60    1
    83    14    13    1
    84    14    15    1
    85     9    12    1
    86    60    59    1
    87    60    61    1
    88    16    15    2
    89    71    70    2
    90    61    62    2
    91    61    68   am
    92    68    69    1
    93    79    78    1
    94    79    80    1
    95    70    78   am
    96    70    69    1
    97    80    81    2
    98    69    72    1
    99    72    73    1
   100    73    75   ar
   101    73    74   ar
   102    75    77   ar
   103    74    76   ar
   104    77    76   ar
