@<TRIPOS>MOLECULE
tmp/1gxcG00.pdb
 120 117 0 0 0
SMALL
GASTEIGER

@<TRIPOS>ATOM
      1  N         72.9200   64.7580   75.1940 N.3    26  ARG26      -0.1231
      2  CA        71.5140   64.4800   75.4160 C.3    26  ARG26       0.1694
      3  C         70.7750   64.0110   74.1740 C.2    26  ARG26       0.2592
      4  O         69.7740   63.3240   74.2820 O.2    26  ARG26      -0.2718
      5  CB        70.8260   65.7020   76.0100 C.3    26  ARG26       0.0321
      6  CG        71.0280   65.8340   77.5030 C.3    26  ARG26       0.0489
      7  CD        70.2520   66.9880   78.1200 C.3    26  ARG26       0.2205
      8  NE        70.6780   68.2830   77.5860 N.pl3  26  ARG26      -0.0865
      9  CZ        69.8770   69.1440   76.9730 C.cat  26  ARG26       0.5346
     10  NH1       68.5920   68.8670   76.8010 N.pl3  26  ARG26       0.1354
     11  NH2       70.3610   70.2940   76.5370 N.pl3  26  ARG26       0.1354
     12  N         71.2720   64.3860   73.0030 N.am   27  ASP27      -0.1960
     13  CA        70.6470   64.0080   71.7500 C.3    27  ASP27       0.1840
     14  C         70.6280   62.4900   71.5720 C.2    27  ASP27       0.2621
     15  O         71.6570   61.8350   71.6950 O.2    27  ASP27      -0.2715
     16  CB        71.4050   64.6560   70.6000 C.3    27  ASP27       0.1450
     17  CG        70.4890   65.2430   69.5560 C.2    27  ASP27       0.3671
     18  OD1       69.8050   64.4590   68.8530 O.co2  27  ASP27      -0.2456
     19  OD2       70.4020   66.4820   69.3740 O.co2  27  ASP27      -0.2456
     20  N         69.4570   61.9340   71.2720 N.am   28  LYS28      -0.1977
     21  CA        69.3160   60.4810   71.0980 C.3    28  LYS28       0.1596
     22  C         70.2930   59.8590   70.0960 C.2    28  LYS28       0.2287
     23  O         70.5930   58.6780   70.1720 O.2    28  LYS28      -0.2864
     24  CB        67.8730   60.1080   70.7570 C.3    28  LYS28       0.0298
     25  CG        66.8810   60.4430   71.8730 C.3    28  LYS28       0.0038
     26  CD        67.2700   59.7810   73.1980 C.3    28  LYS28       0.0206
     27  CE        67.0540   58.2680   73.1310 C.3    28  LYS28       0.1093
     28  NZ        67.4530   57.6120   74.4100 N.3    28  LYS28      -0.1314
     29  N         68.1010   62.1180   84.5770 N.3    40  LYS40      -0.1245
     30  CA        67.2140   63.1370   84.0270 C.3    40  LYS40       0.1561
     31  C         66.5110   64.0070   85.0840 C.2    40  LYS40       0.2260
     32  O         65.8370   64.9610   84.7280 O.2    40  LYS40      -0.2867
     33  CB        66.1570   62.4770   83.1430 C.3    40  LYS40       0.0271
     34  CG        66.6650   61.8810   81.8260 C.3    40  LYS40       0.0035
     35  CD        65.5690   61.0200   81.2100 C.3    40  LYS40       0.0206
     36  CE        65.8860   60.5830   79.7920 C.3    40  LYS40       0.1093
     37  NZ        65.5800   61.6250   78.7800 N.3    40  LYS40      -0.1314
     38  N         71.9860   67.7990   85.3780 N.3    45  TYR45      -0.1227
     39  CA        71.6170   67.2600   84.0860 C.3    45  TYR45       0.1736
     40  C         71.2060   68.3570   83.1090 C.2    45  TYR45       0.2595
     41  O         71.4450   68.2410   81.9070 O.2    45  TYR45      -0.2718
     42  CB        70.4740   66.2700   84.2510 C.3    45  TYR45       0.0548
     43  CG        69.9330   65.7820   82.9420 C.ar   45  TYR45      -0.0200
     44  CD1       70.6220   64.8410   82.2070 C.ar   45  TYR45      -0.0009
     45  CD2       68.7310   66.2750   82.4350 C.ar   45  TYR45      -0.0009
     46  CE1       70.1290   64.3930   81.0030 C.ar   45  TYR45       0.0417
     47  CE2       68.2250   65.8300   81.2360 C.ar   45  TYR45       0.0417
     48  CZ        68.9270   64.8880   80.5200 C.ar   45  TYR45       0.1957
     49  OH        68.4340   64.4320   79.3150 O.3    45  TYR45      -0.2866
     50  N         70.5840   69.4150   83.6280 N.am   46  ARG46      -0.1966
     51  CA        70.1520   70.5230   82.7900 C.3    46  ARG46       0.1729
     52  C         71.3420   71.2880   82.2210 C.2    46  ARG46       0.2617
     53  O         71.1960   72.0540   81.2640 O.2    46  ARG46      -0.2715
     54  CB        69.2350   71.4950   83.5520 C.3    46  ARG46       0.0348
     55  CG        67.9760   70.8830   84.1710 C.3    46  ARG46       0.0492
     56  CD        67.2760   69.8490   83.3000 C.3    46  ARG46       0.2205
     57  NE        65.9430   70.2290   82.8100 N.pl3  46  ARG46      -0.0865
     58  CZ        65.7100   71.2830   82.0510 C.cat  46  ARG46       0.5346
     59  NH1       66.7220   72.0850   81.7200 N.pl3  46  ARG46       0.1354
     60  NH2       64.4750   71.5480   81.6380 N.pl3  46  ARG46       0.1354
     61  N         72.5250   71.0810   82.7880 N.am   47  THR47      -0.1937
     62  CA        73.6740   71.8440   82.3280 C.3    47  THR47       0.2028
     63  C         74.4740   71.0850   81.2650 C.2    47  THR47       0.2642
     64  O         75.4360   71.6010   80.6860 O.2    47  THR47      -0.2714
     65  CB        74.5590   72.3150   83.5180 C.3    47  THR47       0.1808
     66  OG1       75.3540   71.2300   84.0070 O.3    47  THR47      -0.2208
     67  CG2       73.7030   72.6870   84.7380 C.3    47  THR47       0.0379
     68  N         74.0560   69.8610   80.9890 N.am   48  TYR48      -0.1959
     69  CA        74.7150   69.0300   79.9930 C.3    48  TYR48       0.1771
     70  C         74.1950   69.4020   78.6120 C.2    48  TYR48       0.2620
     71  O         73.0080   69.6400   78.4390 O.2    48  TYR48      -0.2715
     72  CB        74.4550   67.5510   80.3110 C.3    48  TYR48       0.0574
     73  CG        74.9880   67.1430   81.6760 C.ar   48  TYR48      -0.0198
     74  CD1       74.5270   65.9980   82.3420 C.ar   48  TYR48      -0.0009
     75  CD2       75.9670   67.9140   82.2980 C.ar   48  TYR48      -0.0009
     76  CE1       75.0430   65.6410   83.5960 C.ar   48  TYR48       0.0417
     77  CE2       76.4840   67.5740   83.5210 C.ar   48  TYR48       0.0417
     78  CZ        76.0310   66.4500   84.1770 C.ar   48  TYR48       0.1957
     79  OH        76.6070   66.2000   85.4050 O.3    48  TYR48      -0.2866
     80  N         75.0790   69.4530   77.6220 N.am   49  SER49      -0.1936
     81  CA        74.6780   69.8220   76.2760 C.3    49  SER49       0.2055
     82  C         74.0570   68.6710   75.4650 C.2    49  SER49       0.2642
     83  O         74.2180   67.5010   75.8120 O.2    49  SER49      -0.2714
     84  CB        75.8750   70.3960   75.5380 C.3    49  SER49       0.2130
     85  OG        76.1320   71.7350   75.9460 O.3    49  SER49      -0.2179
     86  N         73.3340   69.0020   74.3920 N.am   50  LYS50      -0.1977
     87  CA        72.7510   67.9670   73.5340 C.3    50  LYS50       0.1596
     88  C         73.8850   67.1420   72.9410 C.2    50  LYS50       0.2287
     89  O         73.7880   65.9240   72.8150 O.2    50  LYS50      -0.2864
     90  CB        71.8740   68.5790   72.4350 C.3    50  LYS50       0.0298
     91  CG        70.5670   69.1880   72.9580 C.3    50  LYS50       0.0038
     92  CD        69.7450   69.8540   71.8640 C.3    50  LYS50       0.0206
     93  CE        70.4640   71.0520   71.2880 C.3    50  LYS50       0.1093
     94  NZ        70.2240   72.2850   72.0730 N.3    50  LYS50      -0.1314
     95  N         78.5520   73.8790   75.9360 N.3    74  GLY74      -0.1210
     96  CA        78.3800   75.2470   76.3880 C.3    74  GLY74       0.1956
     97  C         78.9800   75.5090   77.7640 C.2    74  GLY74       0.2611
     98  O         79.5340   76.5770   78.0150 O.2    74  GLY74      -0.2717
     99  N         78.8690   74.5430   78.6650 N.am   75  ASN75      -0.1974
    100  CA        79.4400   74.7150   79.9810 C.3    75  ASN75       0.1688
    101  C         80.8180   74.1220   80.0960 C.2    75  ASN75       0.2292
    102  O         81.5860   74.5120   80.9500 O.2    75  ASN75      -0.2864
    103  CB        78.5460   74.1190   81.0550 C.3    75  ASN75       0.1181
    104  CG        77.3010   74.9020   81.2470 C.2    75  ASN75       0.2629
    105  OD1       77.3460   76.1230   81.4020 O.2    75  ASN75      -0.2716
    106  ND2       76.1690   74.2180   81.2280 N.am   75  ASN75      -0.0877
    107  N         80.5480   70.3060   82.9120 N.3   101  SER101     -0.1202
    108  CA        79.9290   71.5650   83.3240 C.3   101  SER101      0.2020
    109  C         80.6070   72.3110   84.4800 C.2   101  SER101      0.2618
    110  O         80.6280   73.5420   84.5050 O.2   101  SER101     -0.2717
    111  CB        78.4440   71.3710   83.6150 C.3   101  SER101      0.2103
    112  OG        77.7160   71.0930   82.4270 O.3   101  SER101     -0.2182
    113  N         81.1490   71.5700   85.4380 N.am  102  LEU102     -0.1979
    114  CA        81.8500   72.1760   86.5530 C.3   102  LEU102      0.1596
    115  C         83.1240   71.3610   86.7430 C.2   102  LEU102      0.2287
    116  O         83.0840   70.1350   86.8190 O.2   102  LEU102     -0.2864
    117  CB        80.9660   72.1700   87.8150 C.3   102  LEU102      0.0297
    118  CG        79.6170   72.8920   87.6590 C.3   102  LEU102      0.0022
    119  CD1       78.4470   72.1120   88.1910 C.3   102  LEU102      0.0001
    120  CD2       79.6300   74.3130   88.2480 C.3   102  LEU102      0.0001
@<TRIPOS>BOND
     1    18    17   ar
     2    19    17   ar
     3    17    16    1
     4    22    23    2
     5    22    21    1
     6    16    13    1
     7    24    21    1
     8    24    25    1
     9    21    20    1
    10    20    14   am
    11    93    92    1
    12    93    94    1
    13    14    15    2
    14    14    13    1
    15    13    12    1
    16    92    91    1
    17    25    26    1
    18    90    91    1
    19    90    87    1
    20    89    88    2
    21    88    87    1
    22    12     3   am
    23    27    26    1
    24    27    28    1
    25    87    86    1
    26     3     4    2
    27     3     2    1
    28    86    82   am
    29     1     2    1
    30     2     5    1
    31    82    83    2
    32    82    81    1
    33    84    85    1
    34    84    81    1
    35    95    96    1
    36     5     6    1
    37    81    80    1
    38    96    97    1
    39    11     9    1
    40    10     9    1
    41     9     8    2
    42     6     7    1
    43     8     7    1
    44    80    70   am
    45    97    98    2
    46    97    99   am
    47    71    70    2
    48    70    69    1
    49    99   100    1
    50    37    36    1
    51    49    48    1
    52    36    35    1
    53   100   101    1
    54   100   103    1
    55    69    72    1
    56    69    68    1
    57   101   102    2
    58    72    73    1
    59    48    46   ar
    60    48    47   ar
    61    64    63    2
    62    68    63   am
    63    46    44   ar
    64   103   104    1
    65    35    34    1
    66   106   104   am
    67    47    45   ar
    68   104   105    2
    69    53    52    2
    70    63    62    1
    71    60    58    1
    72    73    75   ar
    73    73    74   ar
    74    59    58    1
    75    34    33    1
    76    41    40    2
    77    58    57    2
    78    44    43   ar
    79    52    61   am
    80    52    51    1
    81    75    77   ar
    82    62    61    1
    83    62    65    1
    84    74    76   ar
    85   112   111    1
    86    45    43   ar
    87    51    54    1
    88    51    50    1
    89    57    56    1
    90   107   108    1
    91    43    42    1
    92    40    50   am
    93    40    39    1
    94    33    30    1
    95    56    55    1
    96   108   111    1
    97   108   109    1
    98    65    66    1
    99    65    67    1
   100    77    78   ar
   101    54    55    1
   102    76    78   ar
   103    30    29    1
   104    30    31    1
   105    39    42    1
   106    39    38    1
   107    78    79    1
   108   109   110    2
   109   109   113   am
   110    32    31    2
   111   113   114    1
   112   114   115    1
   113   114   117    1
   114   115   116    2
   115   118   117    1
   116   118   119    1
   117   118   120    1
