@<TRIPOS>MOLECULE
tmp/1gxfA02.pdb
 89 87 0 0 0
SMALL
GASTEIGER

@<TRIPOS>ATOM
      1  N         17.8040   14.4990  -11.1890 N.3    15  LEU15      -0.1231
      2  CA        17.3140   14.3020   -9.8310 C.3    15  LEU15       0.1693
      3  C         17.7940   15.3980   -8.8970 C.2    15  LEU15       0.2591
      4  O         16.9880   15.9480   -8.1490 O.2    15  LEU15      -0.2718
      5  CB        17.5560   12.9090   -9.2710 C.3    15  LEU15       0.0284
      6  CG        16.6260   11.8120   -9.7960 C.3    15  LEU15       0.0019
      7  CD1       16.8830   10.4870   -9.1070 C.3    15  LEU15       0.0001
      8  CD2       15.1680   12.2310   -9.7020 C.3    15  LEU15       0.0001
      9  N         19.0790   15.7200   -8.9330 N.am   16  GLU16      -0.1979
     10  CA        19.6290   16.7700   -8.0850 C.3    16  GLU16       0.1602
     11  C         18.8820   18.0820   -8.3300 C.2    16  GLU16       0.2287
     12  O         18.4800   18.7650   -7.3890 O.2    16  GLU16      -0.2864
     13  CB        21.1140   16.9530   -8.4050 C.3    16  GLU16       0.0415
     14  CG        21.8010   17.9850   -7.5300 C.3    16  GLU16       0.1163
     15  CD        21.9120   17.5740   -6.0760 C.2    16  GLU16       0.3649
     16  OE1       21.7050   16.3920   -5.7370 O.co2  16  GLU16      -0.2457
     17  OE2       22.2170   18.4510   -5.2370 O.co2  16  GLU16      -0.2457
     18  N         14.9880   17.7230   -7.0440 N.3    19  TRP19      -0.1227
     19  CA        15.0770   17.7890   -5.6070 C.3    19  TRP19       0.1737
     20  C         15.3480   19.1790   -5.0460 C.2    19  TRP19       0.2595
     21  O         14.6290   19.6450   -4.1620 O.2    19  TRP19      -0.2718
     22  CB        16.2360   16.8710   -5.1370 C.3    19  TRP19       0.0564
     23  CG        16.3180   16.9650   -3.6350 C.ar   19  TRP19       0.0003
     24  CD1       17.1900   17.6900   -2.8810 C.ar   19  TRP19       0.0946
     25  CD2       15.4460   16.2880   -2.7220 C.ar   19  TRP19       0.0152
     26  NE1       16.9200   17.5040   -1.5500 N.ar   19  TRP19      -0.2442
     27  CE2       15.8540   16.6490   -1.4240 C.ar   19  TRP19       0.0810
     28  CE3       14.3660   15.4140   -2.8830 C.ar   19  TRP19       0.0012
     29  CZ2       15.2160   16.1630   -0.2840 C.ar   19  TRP19       0.0191
     30  CZ3       13.7360   14.9350   -1.7490 C.ar   19  TRP19       0.0001
     31  CH2       14.1630   15.3100   -0.4670 C.ar   19  TRP19       0.0015
     32  N         16.3970   19.8420   -5.5180 N.am   20  ASN20      -0.1974
     33  CA        16.7760   21.1680   -5.0630 C.3    20  ASN20       0.1688
     34  C         15.6980   22.2170   -5.3440 C.2    20  ASN20       0.2292
     35  O         15.4910   23.1240   -4.5360 O.2    20  ASN20      -0.2864
     36  CB        18.0560   21.6600   -5.7450 C.3    20  ASN20       0.1181
     37  CG        19.3610   21.2980   -5.0880 C.2    20  ASN20       0.2629
     38  OD1       19.4350   21.0840   -3.8800 O.2    20  ASN20      -0.2716
     39  ND2       20.4340   21.2200   -5.8740 N.am   20  ASN20      -0.0877
     40  N         14.2480    3.0350   -3.5820 N.3   107  SER107     -0.1202
     41  CA        14.4580    4.1580   -2.6740 C.3   107  SER107      0.2020
     42  C         14.1260    5.4790   -3.3640 C.2   107  SER107      0.2618
     43  O         13.6520    6.4340   -2.7510 O.2   107  SER107     -0.2717
     44  CB        15.9270    4.1390   -2.2400 C.3   107  SER107      0.2103
     45  OG        16.1080    4.8540   -1.0360 O.3   107  SER107     -0.2182
     46  N         14.3810    5.5240   -4.6680 N.am  108  TYR108     -0.1975
     47  CA        14.1150    6.6940   -5.4890 C.3   108  TYR108      0.1639
     48  C         12.6140    6.9230   -5.6500 C.2   108  TYR108      0.2290
     49  O         12.1140    8.0390   -5.5130 O.2   108  TYR108     -0.2864
     50  CB        14.7750    6.5460   -6.8720 C.3   108  TYR108      0.0560
     51  CG        16.2170    6.9910   -6.8830 C.ar  108  TYR108     -0.0198
     52  CD1       17.2450    6.3380   -7.5150 C.ar  108  TYR108     -0.0009
     53  CD2       16.6040    8.1320   -6.2250 C.ar  108  TYR108     -0.0009
     54  CE1       18.5540    6.7790   -7.4990 C.ar  108  TYR108      0.0417
     55  CE2       17.9060    8.5480   -6.2290 C.ar  108  TYR108      0.0417
     56  CZ        18.9240    7.9120   -6.8420 C.ar  108  TYR108      0.1957
     57  OH        20.2090    8.3830   -6.8000 O.3   108  TYR108     -0.2866
     58  N         10.1570    5.8620   -3.7540 N.3   110  GLU110     -0.1231
     59  CA         9.6450    6.2450   -2.4380 C.3   110  GLU110      0.1699
     60  C          9.8500    7.7370   -2.2370 C.2   110  GLU110      0.2592
     61  O          8.9450    8.4290   -1.7680 O.2   110  GLU110     -0.2718
     62  CB        10.2760    5.3340   -1.4070 C.3   110  GLU110      0.0402
     63  CG        10.5680    5.8430   -0.0180 C.3   110  GLU110      0.1161
     64  CD        11.9310    5.3790    0.4730 C.2   110  GLU110      0.3649
     65  OE1       12.1460    4.1760    0.6960 O.co2 110  GLU110     -0.2457
     66  OE2       12.7940    6.2980    0.6260 O.co2 110  GLU110     -0.2457
     67  N         11.0150    8.2520   -2.6240 N.am  111  MET111     -0.1979
     68  CA        11.3240    9.6640   -2.5080 C.3   111  MET111      0.1605
     69  C         10.2990   10.5420   -3.2240 C.2   111  MET111      0.2287
     70  O          9.9270   11.5900   -2.6890 O.2   111  MET111     -0.2864
     71  CB        12.7060    9.9970   -3.0930 C.3   111  MET111      0.0413
     72  CG        12.9200   11.5000   -3.2180 C.3   111  MET111      0.0598
     73  SD        14.3450   11.9820   -4.1910 S.3   111  MET111     -0.1393
     74  CE        13.6480   12.0400   -5.8380 C.3   111  MET111      0.0692
     75  N          7.0300   10.6930   -0.8770 N.3   114  ASP114     -0.1225
     76  CA         7.1600   11.5570    0.2720 C.3   114  ASP114      0.1805
     77  C          7.5790   12.9950   -0.0040 C.2   114  ASP114      0.2598
     78  O          7.7070   13.7420    0.9790 O.2   114  ASP114     -0.2718
     79  CB         8.1790   11.0360    1.2730 C.3   114  ASP114      0.1424
     80  CG         8.3710    9.5550    1.4150 C.2   114  ASP114      0.3668
     81  OD1        7.4580    8.7470    1.1960 O.co2 114  ASP114     -0.2456
     82  OD2        9.5540    9.2260    1.7760 O.co2 114  ASP114     -0.2456
     83  N          7.8300   13.3740   -1.2480 N.am  115  THR115     -0.1953
     84  CA         8.2400   14.7520   -1.4910 C.3   115  THR115      0.1897
     85  C          7.1590   15.5080   -2.2430 C.2   115  THR115      0.2313
     86  O          6.7570   15.1730   -3.3520 O.2   115  THR115     -0.2863
     87  CB         9.6340   14.9230   -2.0820 C.3   115  THR115      0.1794
     88  OG1       10.6080   14.3040   -1.2240 O.3   115  THR115     -0.2208
     89  CG2        9.9890   16.3970   -2.2250 C.3   115  THR115      0.0378
@<TRIPOS>BOND
     1     1     2    1
     2     2     5    1
     3     2     3    1
     4     6     8    1
     5     6     5    1
     6     6     7    1
     7     9     3   am
     8     9    10    1
     9     3     4    2
    10    13    10    1
    11    13    14    1
    12    11    10    1
    13    11    12    2
    14    14    15    1
    15    52    54   ar
    16    52    51   ar
    17    54    56   ar
    18    18    19    1
    19    51    50    1
    20    51    53   ar
    21    50    47    1
    22    56    57    1
    23    56    55   ar
    24    55    53   ar
    25    15    16   ar
    26    15    17   ar
    27    39    37   am
    28    74    73    1
    29    36    37    1
    30    36    33    1
    31    48    49    2
    32    48    47    1
    33    19    22    1
    34    19    20    1
    35    32    33    1
    36    32    20   am
    37    47    46    1
    38    34    33    1
    39    34    35    2
    40    22    23    1
    41    37    38    2
    42    20    21    2
    43    46    42   am
    44    73    72    1
    45    58    59    1
    46    23    24   ar
    47    23    25   ar
    48    40    41    1
    49    42    43    2
    50    42    41    1
    51    86    85    2
    52    69    70    2
    53    69    68    1
    54    72    71    1
    55    71    68    1
    56    28    25   ar
    57    28    30   ar
    58    24    26   ar
    59    25    27   ar
    60    41    44    1
    61    67    68    1
    62    67    60   am
    63    59    60    1
    64    59    62    1
    65    85    84    1
    66    44    45    1
    67    60    61    2
    68    89    87    1
    69    87    84    1
    70    87    88    1
    71    30    31   ar
    72    26    27   ar
    73    84    83    1
    74    27    29   ar
    75    62    63    1
    76    83    77   am
    77    75    76    1
    78    31    29   ar
    79    63    64    1
    80    77    76    1
    81    77    78    2
    82    76    79    1
    83    64    66   ar
    84    64    65   ar
    85    81    80   ar
    86    79    80    1
    87    80    82   ar
