@<TRIPOS>MOLECULE
tmp/1gxfA03.pdb
 105 96 0 0 0
SMALL
GASTEIGER

@<TRIPOS>ATOM
      1  N         21.4660   11.5870  -12.4810 N.3    12  SER12      -0.1217
      2  CA        22.1620   12.3620  -11.4740 C.3    12  SER12       0.1889
      3  C         21.8730   13.8460  -11.5450 C.2    12  SER12       0.2288
      4  O         21.4280   14.4180  -10.5430 O.2    12  SER12      -0.2866
      5  CB        23.6520   12.0280  -11.5020 C.3    12  SER12       0.2089
      6  OG        23.8470   10.7070  -11.0050 O.3    12  SER12      -0.2183
      7  N         17.8040   14.4990  -11.1890 N.3    15  LEU15      -0.1231
      8  CA        17.3140   14.3020   -9.8310 C.3    15  LEU15       0.1693
      9  C         17.7940   15.3980   -8.8970 C.2    15  LEU15       0.2591
     10  O         16.9880   15.9480   -8.1490 O.2    15  LEU15      -0.2718
     11  CB        17.5560   12.9090   -9.2710 C.3    15  LEU15       0.0284
     12  CG        16.6260   11.8120   -9.7960 C.3    15  LEU15       0.0019
     13  CD1       16.8830   10.4870   -9.1070 C.3    15  LEU15       0.0001
     14  CD2       15.1680   12.2310   -9.7020 C.3    15  LEU15       0.0001
     15  N         19.0790   15.7200   -8.9330 N.am   16  GLU16      -0.1979
     16  CA        19.6290   16.7700   -8.0850 C.3    16  GLU16       0.1602
     17  C         18.8820   18.0820   -8.3300 C.2    16  GLU16       0.2287
     18  O         18.4800   18.7650   -7.3890 O.2    16  GLU16      -0.2864
     19  CB        21.1140   16.9530   -8.4050 C.3    16  GLU16       0.0415
     20  CG        21.8010   17.9850   -7.5300 C.3    16  GLU16       0.1163
     21  CD        21.9120   17.5740   -6.0760 C.2    16  GLU16       0.3649
     22  OE1       21.7050   16.3920   -5.7370 O.co2  16  GLU16      -0.2457
     23  OE2       22.2170   18.4510   -5.2370 O.co2  16  GLU16      -0.2457
     24  N         17.1320    7.0510  -11.5480 N.3    47  GLY47      -0.1225
     25  CA        18.4630    6.8620  -10.9680 C.3    47  GLY47       0.1811
     26  C         19.5500    7.2350  -11.9700 C.2    47  GLY47       0.2280
     27  O         20.6200    7.7190  -11.5990 O.2    47  GLY47      -0.2866
     28  N         24.5460    6.4470  -13.5440 N.3    50  CYS50      -0.1221
     29  CA        25.3340    6.1510  -12.3500 C.3    50  CYS50       0.1808
     30  C         24.7130    4.9980  -11.5720 C.2    50  CYS50       0.2601
     31  O         25.3980    4.0410  -11.2010 O.2    50  CYS50      -0.2717
     32  CB        25.4900    7.3900  -11.4760 C.3    50  CYS50       0.0970
     33  SG        25.5710    7.1430   -9.6900 S.3    50  CYS50      -0.0800
     34  N         23.4070    5.0990  -11.3360 N.am   51  VAL51      -0.1979
     35  CA        22.7070    4.0660  -10.5980 C.3    51  VAL51       0.1595
     36  C         22.5530    2.7410  -11.3240 C.2    51  VAL51       0.2287
     37  O         22.9380    1.7010  -10.7870 O.2    51  VAL51      -0.2864
     38  CB        21.3240    4.5320  -10.1010 C.3    51  VAL51       0.0276
     39  CG1       20.5020    3.3500   -9.6010 C.3    51  VAL51       0.0022
     40  CG2       21.4700    5.5790   -9.0100 C.3    51  VAL51       0.0022
     41  N         27.7450    2.8050   -9.9250 N.3    56  VAL56      -0.1245
     42  CA        27.4110    1.8090   -8.9130 C.3    56  VAL56       0.1561
     43  C         27.7330    0.3910   -9.3010 C.2    56  VAL56       0.2260
     44  O         28.6180   -0.2300   -8.6930 O.2    56  VAL56      -0.2867
     45  CB        26.0620    2.0930   -8.2700 C.3    56  VAL56       0.0252
     46  CG1       25.5400    0.9420   -7.4400 C.3    56  VAL56       0.0019
     47  CG2       26.1430    3.3740   -7.4430 C.3    56  VAL56       0.0019
     48  N         18.0080    0.6900   -4.8230 N.3   104  ILE104     -0.1245
     49  CA        18.1750    2.1280   -5.0130 C.3   104  ILE104      0.1561
     50  C         17.0480    2.6620   -5.8890 C.2   104  ILE104      0.2260
     51  O         16.5030    3.7330   -5.6170 O.2   104  ILE104     -0.2867
     52  CB        19.5480    2.5050   -5.5780 C.3   104  ILE104      0.0252
     53  CG1       20.6370    1.9970   -4.6280 C.3   104  ILE104      0.0019
     54  CG2       19.6700    4.0100   -5.7770 C.3   104  ILE104      0.0019
     55  CD1       22.0470    2.2500   -5.1030 C.3   104  ILE104      0.0001
     56  N         14.2480    3.0350   -3.5820 N.3   107  SER107     -0.1202
     57  CA        14.4580    4.1580   -2.6740 C.3   107  SER107      0.2020
     58  C         14.1260    5.4790   -3.3640 C.2   107  SER107      0.2618
     59  O         13.6520    6.4340   -2.7510 O.2   107  SER107     -0.2717
     60  CB        15.9270    4.1390   -2.2400 C.3   107  SER107      0.2103
     61  OG        16.1080    4.8540   -1.0360 O.3   107  SER107     -0.2182
     62  N         14.3810    5.5240   -4.6680 N.am  108  TYR108     -0.1975
     63  CA        14.1150    6.6940   -5.4890 C.3   108  TYR108      0.1639
     64  C         12.6140    6.9230   -5.6500 C.2   108  TYR108      0.2290
     65  O         12.1140    8.0390   -5.5130 O.2   108  TYR108     -0.2864
     66  CB        14.7750    6.5460   -6.8720 C.3   108  TYR108      0.0560
     67  CG        16.2170    6.9910   -6.8830 C.ar  108  TYR108     -0.0198
     68  CD1       17.2450    6.3380   -7.5150 C.ar  108  TYR108     -0.0009
     69  CD2       16.6040    8.1320   -6.2250 C.ar  108  TYR108     -0.0009
     70  CE1       18.5540    6.7790   -7.4990 C.ar  108  TYR108      0.0417
     71  CE2       17.9060    8.5480   -6.2290 C.ar  108  TYR108      0.0417
     72  CZ        18.9240    7.9120   -6.8420 C.ar  108  TYR108      0.1957
     73  OH        20.2090    8.3830   -6.8000 O.3   108  TYR108     -0.2866
     74  N         10.1570    5.8620   -3.7540 N.3   110  GLU110     -0.1231
     75  CA         9.6450    6.2450   -2.4380 C.3   110  GLU110      0.1699
     76  C          9.8500    7.7370   -2.2370 C.2   110  GLU110      0.2592
     77  O          8.9450    8.4290   -1.7680 O.2   110  GLU110     -0.2718
     78  CB        10.2760    5.3340   -1.4070 C.3   110  GLU110      0.0402
     79  CG        10.5680    5.8430   -0.0180 C.3   110  GLU110      0.1161
     80  CD        11.9310    5.3790    0.4730 C.2   110  GLU110      0.3649
     81  OE1       12.1460    4.1760    0.6960 O.co2 110  GLU110     -0.2457
     82  OE2       12.7940    6.2980    0.6260 O.co2 110  GLU110     -0.2457
     83  N         11.0150    8.2520   -2.6240 N.am  111  MET111     -0.1979
     84  CA        11.3240    9.6640   -2.5080 C.3   111  MET111      0.1605
     85  C         10.2990   10.5420   -3.2240 C.2   111  MET111      0.2287
     86  O          9.9270   11.5900   -2.6890 O.2   111  MET111     -0.2864
     87  CB        12.7060    9.9970   -3.0930 C.3   111  MET111      0.0413
     88  CG        12.9200   11.5000   -3.2180 C.3   111  MET111      0.0598
     89  SD        14.3450   11.9820   -4.1910 S.3   111  MET111     -0.1393
     90  CE        13.6480   12.0400   -5.8380 C.3   111  MET111      0.0692
     91  N         29.8210   11.7350  -12.9390 N.3   332  THR332     -0.1218
     92  CA        28.6350   11.8760  -12.1060 C.3   332  THR332      0.1862
     93  C         28.6050   13.1510  -11.2890 C.2   332  THR332      0.2287
     94  O         27.6460   13.9300  -11.3540 O.2   332  THR332     -0.2866
     95  CB        28.3590   10.6150  -11.2800 C.3   332  THR332      0.1770
     96  OG1       28.0080    9.5490  -12.1790 O.3   332  THR332     -0.2211
     97  CG2       27.2210   10.8240  -10.2980 C.3   332  THR332      0.0375
     98  N         25.9620   16.4210  -11.0470 N.3   336  ILE336     -0.1245
     99  CA        25.3120   16.8000   -9.7960 C.3   336  ILE336      0.1561
    100  C         25.5560   18.2590   -9.4650 C.2   336  ILE336      0.2260
    101  O         24.6460   18.9870   -9.0710 O.2   336  ILE336     -0.2867
    102  CB        25.6740   15.8230   -8.6760 C.3   336  ILE336      0.0252
    103  CG1       25.0020   14.4650   -8.9500 C.3   336  ILE336      0.0019
    104  CG2       25.2300   16.3680   -7.3300 C.3   336  ILE336      0.0019
    105  CD1       25.5310   13.3320   -8.0970 C.3   336  ILE336      0.0001
@<TRIPOS>BOND
     1    28    29    1
     2    91    92    1
     3     1     2    1
     4    29    30    1
     5    29    32    1
     6    96    95    1
     7    92    93    1
     8    92    95    1
     9    26    27    2
    10    26    25    1
    11    30    34   am
    12    30    31    2
    13    24    25    1
    14     3     2    1
    15     3     4    2
    16     5     2    1
    17     5     6    1
    18    32    33    1
    19    94    93    2
    20    34    35    1
    21    36    37    2
    22    36    35    1
    23    95    97    1
    24     7     8    1
    25    98    99    1
    26    35    38    1
    27    38    39    1
    28    38    40    1
    29    41    42    1
    30     8    11    1
    31     8     9    1
    32    99   100    1
    33    99   102    1
    34    12    14    1
    35    12    11    1
    36    12    13    1
    37   100   101    2
    38    43    42    1
    39    43    44    2
    40   103   102    1
    41   103   105    1
    42    15     9   am
    43    15    16    1
    44    42    45    1
    45     9    10    2
    46   102   104    1
    47    19    16    1
    48    19    20    1
    49    17    16    1
    50    17    18    2
    51    45    47    1
    52    45    46    1
    53    20    21    1
    54    68    70   ar
    55    68    67   ar
    56    70    72   ar
    57    67    66    1
    58    67    69   ar
    59    66    63    1
    60    72    73    1
    61    72    71   ar
    62    71    69   ar
    63    21    22   ar
    64    21    23   ar
    65    50    51    2
    66    50    49    1
    67    90    89    1
    68    54    52    1
    69    64    65    2
    70    64    63    1
    71    52    49    1
    72    52    53    1
    73    63    62    1
    74    55    53    1
    75    49    48    1
    76    62    58   am
    77    89    88    1
    78    74    75    1
    79    56    57    1
    80    58    59    2
    81    58    57    1
    82    85    86    2
    83    85    84    1
    84    88    87    1
    85    87    84    1
    86    57    60    1
    87    83    84    1
    88    83    76   am
    89    75    76    1
    90    75    78    1
    91    60    61    1
    92    76    77    2
    93    78    79    1
    94    79    80    1
    95    80    82   ar
    96    80    81   ar
