@<TRIPOS>MOLECULE
tmp/1gxfA01.pdb
 92 89 0 0 0
SMALL
GASTEIGER

@<TRIPOS>ATOM
      1  N         28.1250    4.7250  -28.3000 N.3   163  HIS163     -0.1241
      2  CA        28.1570    5.0490  -29.7280 C.3   163  HIS163      0.1621
      3  C         28.5630    3.7850  -30.4810 C.2   163  HIS163      0.2264
      4  O         29.6760    3.3060  -30.2450 O.2   163  HIS163     -0.2867
      5  CB        29.1640    6.1850  -29.9330 C.3   163  HIS163      0.0745
      6  CG        29.5430    6.3670  -31.3690 C.ar  163  HIS163      0.0817
      7  ND1       28.6080    6.6270  -32.3520 N.ar  163  HIS163     -0.2268
      8  CD2       30.7480    6.3250  -31.9850 C.ar  163  HIS163      0.1154
      9  CE1       29.2320    6.7350  -33.5120 C.ar  163  HIS163      0.1986
     10  NE2       30.5290    6.5580  -33.3200 N.ar  163  HIS163     -0.2212
     11  N         29.7450    2.1080  -33.8910 N.3   165  PRO165     -0.2116
     12  CA        30.2660    2.5340  -35.1810 C.3   165  PRO165      0.1372
     13  C         29.5450    1.8410  -36.3290 C.2   165  PRO165      0.2244
     14  O         29.0990    0.7070  -36.1510 O.2   165  PRO165     -0.2868
     15  CB        31.7230    2.0860  -35.1390 C.3   165  PRO165      0.0268
     16  CG        31.7690    0.9740  -34.1570 C.3   165  PRO165      0.0207
     17  CD        30.6690    1.2150  -33.1620 C.3   165  PRO165      0.0892
     18  N         36.3840   -3.2880  -27.4110 N.3   192  VAL192     -0.1231
     19  CA        36.8890   -2.3270  -28.3820 C.3   192  VAL192      0.1692
     20  C         36.8300   -0.9110  -27.8350 C.2   192  VAL192      0.2593
     21  O         35.7450   -0.4060  -27.5620 O.2   192  VAL192     -0.2718
     22  CB        36.0890   -2.4200  -29.6950 C.3   192  VAL192      0.0266
     23  CG1       36.6270   -1.4620  -30.7400 C.3   192  VAL192      0.0020
     24  CG2       36.1020   -3.8460  -30.2270 C.3   192  VAL192      0.0020
     25  N         37.9970   -0.2900  -27.6980 N.am  193  GLY193     -0.1942
     26  CA        38.0630    1.0810  -27.2000 C.3   193  GLY193      0.2014
     27  C         39.3380    1.2670  -26.3920 C.2   193  GLY193      0.2639
     28  O         39.8250    0.2710  -25.8490 O.2   193  GLY193     -0.2714
     29  N         39.8590    2.4850  -26.2960 N.am  194  GLY194     -0.1954
     30  CA        41.0820    2.6680  -25.5060 C.3   194  GLY194      0.1869
     31  C         40.7430    3.2940  -24.1590 C.2   194  GLY194      0.2309
     32  O         41.5450    3.2940  -23.2270 O.2   194  GLY194     -0.2863
     33  N         41.4340   -4.0210  -27.7930 N.3   218  CYS218     -0.1221
     34  CA        42.0330   -3.4080  -28.9690 C.3   218  CYS218      0.1808
     35  C         41.6590   -1.9280  -29.0220 C.2   218  CYS218      0.2601
     36  O         40.5950   -1.4720  -28.6280 O.2   218  CYS218     -0.2717
     37  CB        41.8330   -4.1300  -30.2810 C.3   218  CYS218      0.0970
     38  SG        40.1870   -3.9280  -30.9910 S.3   218  CYS218     -0.0800
     39  N         42.6330   -1.1860  -29.5160 N.am  219  TYR219     -0.1962
     40  CA        42.5780    0.2480  -29.6870 C.3   219  TYR219      0.1771
     41  C         43.2590    0.5980  -31.0120 C.2   219  TYR219      0.2619
     42  O         44.2640    0.0080  -31.4100 O.2   219  TYR219     -0.2715
     43  CB        43.2910    0.9420  -28.5170 C.3   219  TYR219      0.0574
     44  CG        43.2410    2.4500  -28.6600 C.ar  219  TYR219     -0.0198
     45  CD1       42.0590    3.0440  -29.0910 C.ar  219  TYR219     -0.0009
     46  CD2       44.3300    3.2570  -28.3780 C.ar  219  TYR219     -0.0009
     47  CE1       41.9630    4.4120  -29.2400 C.ar  219  TYR219      0.0417
     48  CE2       44.2380    4.6290  -28.5260 C.ar  219  TYR219      0.0417
     49  CZ        43.0560    5.1970  -28.9560 C.ar  219  TYR219      0.1957
     50  OH        42.9700    6.5640  -29.1020 O.3   219  TYR219     -0.2866
     51  N         42.6700    1.5690  -31.6960 N.am  220  ARG220     -0.1977
     52  CA        43.1790    2.0130  -32.9840 C.3   220  ARG220      0.1597
     53  C         44.3770    2.9350  -32.8540 C.2   220  ARG220      0.2287
     54  O         45.1630    3.0240  -33.8020 O.2   220  ARG220     -0.2864
     55  CB        42.0740    2.6140  -33.8360 C.3   220  ARG220      0.0334
     56  CG        41.9610    4.1260  -33.8860 C.3   220  ARG220      0.0492
     57  CD        40.5020    4.5230  -33.7860 C.3   220  ARG220      0.2205
     58  NE        39.8830    4.9890  -35.0050 N.pl3 220  ARG220     -0.0865
     59  CZ        38.7040    5.5970  -35.0510 C.cat 220  ARG220      0.5346
     60  NH1       37.9760    5.8400  -33.9810 N.pl3 220  ARG220      0.1354
     61  NH2       38.2330    5.9810  -36.2240 N.pl3 220  ARG220      0.1354
     62  N         42.2130   -1.8840  -35.9270 N.3   252  ASN252     -0.1226
     63  CA        40.9010   -1.2680  -36.0760 C.3   252  ASN252      0.1770
     64  C         39.9530   -2.2140  -36.7970 C.2   252  ASN252      0.2439
     65  O         40.0680   -2.4160  -38.0030 O.2   252  ASN252     -0.2733
     66  CB        41.0000    0.0650  -36.8120 C.3   252  ASN252      0.1168
     67  CG        39.6650    0.7780  -36.8490 C.2   252  ASN252      0.2627
     68  OD1       39.3960    1.6990  -37.6130 O.2   252  ASN252     -0.2716
     69  ND2       38.7650    0.3300  -35.9760 N.am  252  ASN252     -0.0877
     70  N         39.0190   -2.7960  -36.0640 N.am  253  PRO253     -0.2729
     71  CA        38.0610   -3.7220  -36.6340 C.3   253  PRO253      0.1401
     72  C         37.5060   -3.2710  -37.9790 C.2   253  PRO253      0.2269
     73  O         37.2070   -2.0940  -38.1750 O.2   253  PRO253     -0.2865
     74  CB        36.9450   -3.7590  -35.5860 C.3   253  PRO253      0.0296
     75  CG        37.5760   -3.3710  -34.3010 C.3   253  PRO253      0.0237
     76  CD        38.8260   -2.6030  -34.6100 C.3   253  PRO253      0.0939
     77  N         31.8030   -3.2060  -27.7390 N.3   281  MET281     -0.1245
     78  CA        32.3120   -1.9480  -28.2970 C.3   281  MET281      0.1570
     79  C         32.2230   -0.8800  -27.2130 C.2   281  MET281      0.2261
     80  O         31.1630   -0.7160  -26.6100 O.2   281  MET281     -0.2867
     81  CB        31.5000   -1.5520  -29.5290 C.3   281  MET281      0.0387
     82  CG        31.7450   -2.4240  -30.7530 C.3   281  MET281      0.0595
     83  SD        33.0780   -1.7940  -31.7910 S.3   281  MET281     -0.1393
     84  CE        33.6790   -3.3180  -32.5130 C.3   281  MET281      0.0692
     85  N         33.6810    2.5520  -27.6390 N.3   283  ILE283     -0.1245
     86  CA        34.4140    3.6180  -28.2960 C.3   283  ILE283      0.1561
     87  C         33.9010    5.0130  -28.0230 C.2   283  ILE283      0.2260
     88  O         34.3380    5.9300  -28.7300 O.2   283  ILE283     -0.2867
     89  CB        34.4430    3.4130  -29.8270 C.3   283  ILE283      0.0252
     90  CG1       33.0070    3.3690  -30.3540 C.3   283  ILE283      0.0019
     91  CG2       35.1700    2.1220  -30.1620 C.3   283  ILE283      0.0019
     92  CD1       32.8690    3.7160  -31.8150 C.3   283  ILE283      0.0001
@<TRIPOS>BOND
     1    73    72    2
     2    65    64    2
     3    72    71    1
     4    68    67    2
     5    67    66    1
     6    67    69   am
     7    66    63    1
     8    64    63    1
     9    64    70   am
    10    71    70    1
    11    71    74    1
    12    13    14    2
    13    13    12    1
    14    61    59    1
    15    63    62    1
    16    70    76    1
    17    74    75    1
    18    12    15    1
    19    12    11    1
    20    15    16    1
    21    59    58    2
    22    59    60    1
    23    58    57    1
    24    76    75    1
    25    16    17    1
    26    11    17    1
    27    56    55    1
    28    56    57    1
    29    55    52    1
    30    54    53    2
    31     9    10   ar
    32     9     7   ar
    33    10     8   ar
    34    52    53    1
    35    52    51    1
    36    84    83    1
    37     7     6   ar
    38     8     6   ar
    39    92    90    1
    40    83    82    1
    41    51    41   am
    42    42    41    2
    43     6     5    1
    44    41    40    1
    45    38    37    1
    46    82    81    1
    47    23    22    1
    48     3     4    2
    49     3     2    1
    50    90    89    1
    51    37    34    1
    52    24    22    1
    53    91    89    1
    54     5     2    1
    55    89    86    1
    56     2     1    1
    57    22    19    1
    58    40    39    1
    59    40    43    1
    60    81    78    1
    61    39    35   am
    62    47    45   ar
    63    47    49   ar
    64    50    49    1
    65    45    44   ar
    66    35    34    1
    67    35    36    2
    68    34    33    1
    69    49    48   ar
    70    88    87    2
    71    44    43    1
    72    44    46   ar
    73    48    46   ar
    74    19    20    1
    75    19    18    1
    76    78    77    1
    77    78    79    1
    78    86    87    1
    79    86    85    1
    80    20    25   am
    81    20    21    2
    82    25    26    1
    83    79    80    2
    84    26    27    1
    85    27    29   am
    86    27    28    2
    87    29    30    1
    88    30    31    1
    89    31    32    2
