@<TRIPOS>MOLECULE
tmp/1gxoA00.pdb
 122 116 0 0 0
SMALL
GASTEIGER

@<TRIPOS>ATOM
      1  N         23.2020    7.0780   20.9070 N.3    62  ASN62      -0.1240
      2  CA        23.8000    8.1730   21.6670 C.3    62  ASN62       0.1653
      3  C         24.8640    8.9760   20.9170 C.2    62  ASN62       0.2266
      4  O         25.8920    9.3650   21.5000 O.2    62  ASN62      -0.2867
      5  CB        24.3810    7.6560   22.9900 C.3    62  ASN62       0.1155
      6  CG        23.3010    7.2630   23.9730 C.2    62  ASN62       0.2627
      7  OD1       22.2010    7.8260   23.9580 O.2    62  ASN62      -0.2716
      8  ND2       23.6040    6.2950   24.8420 N.am   62  ASN62      -0.0877
      9  N         15.4040   -5.2290   19.0150 N.3   115  TYR115     -0.1241
     10  CA        14.9980   -3.8680   18.6210 C.3   115  TYR115      0.1605
     11  C         16.0920   -3.0430   17.8880 C.2   115  TYR115      0.2264
     12  O         15.7550   -2.1240   17.1420 O.2   115  TYR115     -0.2867
     13  CB        14.4630   -3.0620   19.8190 C.3   115  TYR115      0.0534
     14  CG        15.5320   -2.6950   20.8050 C.ar  115  TYR115     -0.0201
     15  CD1       16.3540   -1.5850   20.5970 C.ar  115  TYR115     -0.0009
     16  CD2       15.7290   -3.4600   21.9500 C.ar  115  TYR115     -0.0009
     17  CE1       17.3670   -1.2480   21.5100 C.ar  115  TYR115      0.0417
     18  CE2       16.7390   -3.1410   22.8660 C.ar  115  TYR115      0.0417
     19  CZ        17.5500   -2.0310   22.6470 C.ar  115  TYR115      0.1957
     20  OH        18.5620   -1.7150   23.5520 O.3   115  TYR115     -0.2866
     21  N         17.6290    8.8930   19.8520 N.3   123  ASP123     -0.1239
     22  CA        18.8660    9.6890   19.9660 C.3   123  ASP123      0.1674
     23  C         19.2510   10.4090   18.6600 C.2   123  ASP123      0.2266
     24  O         20.4360   10.6530   18.3900 O.2   123  ASP123     -0.2867
     25  CB        20.0470    8.8330   20.4580 C.3   123  ASP123      0.1410
     26  CG        19.7460    8.1210   21.7830 C.2   123  ASP123      0.3668
     27  OD1       18.9400    8.6590   22.5800 O.co2 123  ASP123     -0.2456
     28  OD2       20.2600    7.0330   22.1040 O.co2 123  ASP123     -0.2456
     29  N         13.7200   -0.6780   24.2640 N.3   196  ARG196     -0.1245
     30  CA        13.8900   -1.1550   25.6210 C.3   196  ARG196      0.1563
     31  C         12.5220   -1.2170   26.3070 C.2   196  ARG196      0.2260
     32  O         11.5590   -0.6070   25.8340 O.2   196  ARG196     -0.2867
     33  CB        14.8850   -0.2720   26.3640 C.3   196  ARG196      0.0307
     34  CG        16.2770   -0.3710   25.7700 C.3   196  ARG196      0.0489
     35  CD        17.2470    0.6680   26.2400 C.3   196  ARG196      0.2205
     36  NE        16.8840    2.0080   25.8110 N.pl3 196  ARG196     -0.0865
     37  CZ        17.7350    3.0260   25.7840 C.cat 196  ARG196      0.5346
     38  NH1       19.0070    2.8110   26.1410 N.pl3 196  ARG196      0.1354
     39  NH2       17.3420    4.2480   25.3860 N.pl3 196  ARG196      0.1354
     40  N         10.8320    0.0200   28.5900 N.3   198  TYR198     -0.1241
     41  CA        10.1210    1.2300   28.9630 C.3   198  TYR198      0.1605
     42  C          9.9840    2.1800   27.7680 C.2   198  TYR198      0.2264
     43  O          9.6650    3.3550   27.9440 O.2   198  TYR198     -0.2867
     44  CB        10.8850    1.9100   30.1000 C.3   198  TYR198      0.0534
     45  CG        12.3840    1.9550   29.8720 C.ar  198  TYR198     -0.0201
     46  CD1       12.9840    3.0240   29.1870 C.ar  198  TYR198     -0.0009
     47  CD2       13.2160    0.9370   30.3660 C.ar  198  TYR198     -0.0009
     48  CE1       14.3850    3.0720   28.9780 C.ar  198  TYR198      0.0417
     49  CE2       14.5950    0.9710   30.1640 C.ar  198  TYR198      0.0417
     50  CZ        15.1690    2.0320   29.4720 C.ar  198  TYR198      0.1957
     51  OH        16.5280    2.0680   29.2910 O.3   198  TYR198     -0.2866
     52  N          7.4570   12.7330   26.3180 N.3   268  ARG268     -0.1245
     53  CA         8.4070   11.8740   25.6130 C.3   268  ARG268      0.1563
     54  C          7.6920   10.8970   24.6770 C.2   268  ARG268      0.2260
     55  O          8.1620   10.6430   23.5670 O.2   268  ARG268     -0.2867
     56  CB         9.2770   11.0780   26.6190 C.3   268  ARG268      0.0307
     57  CG        10.3890   10.2210   25.9800 C.3   268  ARG268      0.0489
     58  CD        11.4730   11.0440   25.3490 C.3   268  ARG268      0.2205
     59  NE        12.7080   10.3440   24.9490 N.pl3 268  ARG268     -0.0865
     60  CZ        13.7920   10.2340   25.7130 C.cat 268  ARG268      0.5346
     61  NH1       13.7960   10.7110   26.9430 N.pl3 268  ARG268      0.1354
     62  NH2       14.8810    9.6380   25.2530 N.pl3 268  ARG268      0.1354
     63  N         10.0800   -0.6630   33.7650 N.3   282  ARG282     -0.1245
     64  CA        10.8530   -1.8180   33.2820 C.3   282  ARG282      0.1563
     65  C         10.0050   -3.0790   33.1030 C.2   282  ARG282      0.2260
     66  O         10.5020   -4.0800   32.5930 O.2   282  ARG282     -0.2867
     67  CB        12.0550   -2.1110   34.1840 C.3   282  ARG282      0.0307
     68  CG        13.1350   -1.0470   34.1450 C.3   282  ARG282      0.0489
     69  CD        14.4480   -1.5270   34.7180 C.3   282  ARG282      0.2205
     70  NE        15.4640   -0.4820   34.8070 N.pl3 282  ARG282     -0.0865
     71  CZ        16.3070   -0.1420   33.8410 C.cat 282  ARG282      0.5346
     72  NH1       16.2680   -0.7330   32.6470 N.pl3 282  ARG282      0.1354
     73  NH2       17.1990    0.8090   34.0750 N.pl3 282  ARG282      0.1354
     74  N         13.6170    4.4680   39.9640 N.3   296  GLU296     -0.1231
     75  CA        14.7850    4.3340   39.1070 C.3   296  GLU296      0.1699
     76  C         14.5120    4.7750   37.6530 C.2   296  GLU296      0.2592
     77  O         15.3830    5.3610   36.9930 O.2   296  GLU296     -0.2718
     78  CB        15.3810    2.9170   39.2020 C.3   296  GLU296      0.0402
     79  CG        16.7000    2.7360   38.4650 C.3   296  GLU296      0.1161
     80  CD        16.5030    2.3740   36.9890 C.2   296  GLU296      0.3649
     81  OE1       15.3870    1.8870   36.6330 O.co2 296  GLU296     -0.2457
     82  OE2       17.4580    2.5840   36.1870 O.co2 296  GLU296     -0.2457
     83  N         13.3090    4.5090   37.1510 N.am  297  ARG297     -0.1980
     84  CA        12.9690    4.9210   35.8010 C.3   297  ARG297      0.1597
     85  C         12.5490    6.3950   35.7460 C.2   297  ARG297      0.2287
     86  O         12.8180    7.0610   34.7700 O.2   297  ARG297     -0.2864
     87  CB        11.8910    4.0080   35.1870 C.3   297  ARG297      0.0334
     88  CG        12.3930    2.6450   34.6720 C.3   297  ARG297      0.0492
     89  CD        13.4550    2.7190   33.5530 C.3   297  ARG297      0.2205
     90  NE        14.7870    3.1100   34.0350 N.pl3 297  ARG297     -0.0865
     91  CZ        15.7550    3.6240   33.2670 C.cat 297  ARG297      0.5346
     92  NH1       15.5620    3.7830   31.9540 N.pl3 297  ARG297      0.1354
     93  NH2       16.9270    3.9750   33.8130 N.pl3 297  ARG297      0.1354
     94  N         13.7210    8.8060   37.5010 N.3   299  THR299     -0.1203
     95  CA        14.9380    9.6060   37.5920 C.3   299  THR299      0.1994
     96  C         15.9670    9.2510   36.5200 C.2   299  THR299      0.2618
     97  O         16.8410   10.0720   36.2280 O.2   299  THR299     -0.2717
     98  CB        15.5910    9.5000   38.9950 C.3   299  THR299      0.1784
     99  OG1       15.9770    8.1500   39.2560 O.3   299  THR299     -0.2211
    100  CG2       14.5870    9.8050   40.0850 C.3   299  THR299      0.0376
    101  N         15.8560    8.0430   35.9600 N.am  300  GLY300     -0.1942
    102  CA        16.8440    7.4910   35.0460 C.3   300  GLY300      0.2014
    103  C         16.5960    7.7720   33.5830 C.2   300  GLY300      0.2639
    104  O         17.4450    7.5010   32.7350 O.2   300  GLY300     -0.2714
    105  N         15.4290    8.3340   33.2870 N.am  301  TYR301     -0.1959
    106  CA        15.0090    8.6200   31.9070 C.3   301  TYR301      0.1771
    107  C         14.1270    9.8630   31.8890 C.2   301  TYR301      0.2620
    108  O         13.4070   10.1160   32.8560 O.2   301  TYR301     -0.2715
    109  CB        14.2080    7.4330   31.3930 C.3   301  TYR301      0.0574
    110  CG        14.0100    7.3090   29.9040 C.ar  301  TYR301     -0.0198
    111  CD1       14.9720    6.6670   29.1080 C.ar  301  TYR301     -0.0009
    112  CD2       12.8190    7.7450   29.2930 C.ar  301  TYR301     -0.0009
    113  CE1       14.7830    6.5040   27.7480 C.ar  301  TYR301      0.0417
    114  CE2       12.6120    7.5790   27.9170 C.ar  301  TYR301      0.0417
    115  CZ        13.6000    6.9500   27.1530 C.ar  301  TYR301      0.1957
    116  OH        13.4260    6.7710   25.7960 O.3   301  TYR301     -0.2866
    117  N         14.1650   10.6140   30.7890 N.am  302  SER302     -0.1950
    118  CA        13.3580   11.8200   30.6470 C.3   302  SER302      0.1924
    119  C         11.9960   11.4970   30.0310 C.2   302  SER302      0.2314
    120  O         11.9030   11.0450   28.8720 O.2   302  SER302     -0.2863
    121  CB        14.0830   12.8580   29.7640 C.3   302  SER302      0.2116
    122  OG        15.2900   13.2720   30.3820 O.3   302  SER302     -0.2180
@<TRIPOS>BOND
     1    12    11    2
     2    11    10    1
     3    24    23    2
     4    10     9    1
     5    10    13    1
     6    23    22    1
     7    13    14    1
     8    21    22    1
     9    22    25    1
    10    25    26    1
    11    15    14   ar
    12    15    17   ar
    13    14    16   ar
    14     1     2    1
    15     3     4    2
    16     3     2    1
    17    17    19   ar
    18     2     5    1
    19    26    28   ar
    20    26    27   ar
    21    16    18   ar
    22    19    18   ar
    23    19    20    1
    24     5     6    1
    25    55    54    2
    26     7     6    2
    27     6     8   am
    28    29    30    1
    29    54    53    1
    30    59    58    1
    31    59    60    2
    32    62    60    1
    33    58    57    1
    34    39    37    1
    35    53    52    1
    36    53    56    1
    37    30    31    1
    38    30    33    1
    39    60    61    1
    40    34    35    1
    41    34    33    1
    42    37    36    2
    43    37    38    1
    44   116   115    1
    45    36    35    1
    46    32    31    2
    47    57    56    1
    48   115   113   ar
    49   115   114   ar
    50   113   111   ar
    51    42    43    2
    52    42    41    1
    53   114   112   ar
    54    40    41    1
    55   120   119    2
    56    41    44    1
    57    48    46   ar
    58    48    50   ar
    59   111   110   ar
    60    46    45   ar
    61    51    50    1
    62   112   110   ar
    63    50    49   ar
    64   121   122    1
    65   121   118    1
    66    45    44    1
    67    45    47   ar
    68   110   109    1
    69   119   118    1
    70    49    47   ar
    71   118   117    1
    72   117   107   am
    73   109   106    1
    74   107   106    1
    75   107   108    2
    76   106   105    1
    77    92    91    1
    78    66    65    2
    79    72    71    1
    80   104   103    2
    81    65    64    1
    82    91    93    1
    83    91    90    2
    84    64    63    1
    85    64    67    1
    86   105   103   am
    87    89    90    1
    88    89    88    1
    89   103   102    1
    90    71    73    1
    91    71    70    2
    92    68    67    1
    93    68    69    1
    94    88    87    1
    95    69    70    1
    96    86    85    2
    97   102   101    1
    98    87    84    1
    99    85    84    1
   100    84    83    1
   101   101    96   am
   102    82    80   ar
   103    97    96    2
   104    96    95    1
   105    81    80   ar
   106    80    79    1
   107    77    76    2
   108    83    76   am
   109    94    95    1
   110    95    98    1
   111    76    75    1
   112    79    78    1
   113    98    99    1
   114    98   100    1
   115    75    78    1
   116    75    74    1
