@<TRIPOS>MOLECULE
tmp/1gxsC00.pdb
 93 92 0 0 0
SMALL
GASTEIGER

@<TRIPOS>ATOM
      1  N         11.4940   46.2770   61.7410 N.3    59  GLY59      -0.1210
      2  CA        12.7650   46.9330   62.0840 C.3    59  GLY59       0.1956
      3  C         13.0900   48.0570   61.0930 C.2    59  GLY59       0.2612
      4  O         12.1830   48.8070   60.7480 O.2    59  GLY59      -0.2717
      5  N         14.3190   48.2440   60.6200 N.am   60  GLY60      -0.1942
      6  CA        14.6880   49.2980   59.6980 C.3    60  GLY60       0.1998
      7  C         16.1130   49.7660   60.0360 C.2    60  GLY60       0.2480
      8  O         17.0420   49.5860   59.2250 O.2    60  GLY60      -0.2729
      9  N         16.4160   50.4070   61.1840 N.am   61  PRO61      -0.2726
     10  CA        15.4540   50.8690   62.1880 C.3    61  PRO61       0.1402
     11  C         14.4940   51.9380   61.6790 C.2    61  PRO61       0.2269
     12  O         14.8800   52.6430   60.7580 O.2    61  PRO61      -0.2865
     13  CB        16.3250   51.3530   63.2880 C.3    61  PRO61       0.0296
     14  CG        17.6110   51.8220   62.6040 C.3    61  PRO61       0.0237
     15  CD        17.8000   50.8380   61.4860 C.3    61  PRO61       0.0939
     16  N         20.6840   51.1190   70.1900 N.3   123  ASP123     -0.1239
     17  CA        20.1410   49.7640   70.3890 C.3   123  ASP123      0.1674
     18  C         19.7030   49.4840   71.8090 C.2   123  ASP123      0.2266
     19  O         18.5840   49.0190   72.0550 O.2   123  ASP123     -0.2867
     20  CB        21.1800   48.7010   69.9590 C.3   123  ASP123      0.1410
     21  CG        21.3320   48.4890   68.4400 C.2   123  ASP123      0.3668
     22  OD1       20.6680   49.1280   67.6210 O.co2 123  ASP123     -0.2456
     23  OD2       22.1560   47.6680   68.0740 O.co2 123  ASP123     -0.2456
     24  N         10.8720   41.2170   62.1860 N.3   154  GLU154     -0.1231
     25  CA        11.8870   41.4250   61.1740 C.3   154  GLU154      0.1699
     26  C         13.0880   42.2810   61.5100 C.2   154  GLU154      0.2593
     27  O         13.4570   43.1710   60.7540 O.2   154  GLU154     -0.2718
     28  CB        11.1860   41.9720   59.9390 C.3   154  GLU154      0.0402
     29  CG        10.5170   40.8690   59.1630 C.3   154  GLU154      0.1161
     30  CD         9.5810   41.1960   58.0120 C.2   154  GLU154      0.3649
     31  OE1        9.7800   42.1830   57.3420 O.co2 154  GLU154     -0.2457
     32  OE2        8.6270   40.4570   57.7640 O.co2 154  GLU154     -0.2457
     33  N         13.7780   42.0650   62.6170 N.am  155  SER155     -0.1938
     34  CA        14.9690   42.8250   62.8760 C.3   155  SER155      0.2055
     35  C         15.9730   41.9300   63.5540 C.2   155  SER155      0.2644
     36  O         15.7140   41.4020   64.6460 O.2   155  SER155     -0.2714
     37  CB        14.5880   44.0140   63.7540 C.3   155  SER155      0.2130
     38  OG        15.6930   44.5210   64.5010 O.3   155  SER155     -0.2179
     39  N         17.1740   41.8620   63.0030 N.am  156  GLY156     -0.1939
     40  CA        18.2280   41.0840   63.6150 C.3   156  GLY156      0.2014
     41  C         18.7120   41.6830   64.9370 C.2   156  GLY156      0.2639
     42  O         19.3190   40.9830   65.7560 O.2   156  GLY156     -0.2714
     43  N         18.4820   42.9730   65.2030 N.am  157  HIS157     -0.1959
     44  CA        18.9190   43.5750   66.4530 C.3   157  HIS157      0.1787
     45  C         17.7830   43.6350   67.4660 C.2   157  HIS157      0.2620
     46  O         17.9250   43.1370   68.5830 O.2   157  HIS157     -0.2715
     47  CB        19.4750   45.0110   66.2060 C.3   157  HIS157      0.0785
     48  CG        20.8530   45.0620   65.5400 C.ar  157  HIS157      0.0821
     49  ND1       21.9000   45.7920   65.9230 N.ar  157  HIS157     -0.2267
     50  CD2       21.2770   44.3310   64.4570 C.ar  157  HIS157      0.1154
     51  CE1       22.9280   45.5290   65.1330 C.ar  157  HIS157      0.1986
     52  NE2       22.5410   44.6440   64.2550 N.ar  157  HIS157     -0.2212
     53  N         16.6140   44.1850   67.1180 N.am  158  PHE158     -0.1974
     54  CA        15.5760   44.3480   68.1040 C.3   158  PHE158      0.1639
     55  C         15.0650   43.0930   68.7920 C.2   158  PHE158      0.2290
     56  O         14.8440   43.1500   70.0090 O.2   158  PHE158     -0.2864
     57  CB        14.3440   45.0610   67.5100 C.3   158  PHE158      0.0560
     58  CG        14.5340   46.4440   66.8820 C.ar  158  PHE158     -0.0200
     59  CD1       15.7120   47.1820   67.0540 C.ar  158  PHE158     -0.0042
     60  CD2       13.4960   46.9610   66.1070 C.ar  158  PHE158     -0.0042
     61  CE1       15.8300   48.4230   66.4440 C.ar  158  PHE158     -0.0003
     62  CE2       13.6270   48.2000   65.5010 C.ar  158  PHE158     -0.0003
     63  CZ        14.7900   48.9260   65.6720 C.ar  158  PHE158     -0.0000
     64  N         20.1130   41.0560   60.3800 N.3   187  LEU187     -0.1245
     65  CA        21.5550   41.2320   60.4530 C.3   187  LEU187      0.1561
     66  C         22.0350   40.6110   61.7650 C.2   187  LEU187      0.2260
     67  O         21.3810   40.8110   62.7920 O.2   187  LEU187     -0.2867
     68  CB        21.9130   42.7360   60.3920 C.3   187  LEU187      0.0270
     69  CG        21.7040   43.5250   59.0840 C.3   187  LEU187      0.0019
     70  CD1       21.9240   44.9930   59.4020 C.3   187  LEU187      0.0001
     71  CD2       22.6440   43.0170   57.9720 C.3   187  LEU187      0.0001
     72  N         25.6030   50.6230   59.7160 N.3   225  MET225     -0.1245
     73  CA        25.0300   51.8910   60.0820 C.3   225  MET225      0.1570
     74  C         26.0930   52.9820   60.0640 C.2   225  MET225      0.2261
     75  O         25.6920   54.1280   59.8810 O.2   225  MET225     -0.2867
     76  CB        24.4120   51.8680   61.4770 C.3   225  MET225      0.0387
     77  CG        23.0450   51.1770   61.6080 C.3   225  MET225      0.0595
     78  SD        21.7010   51.7080   60.4920 S.3   225  MET225     -0.1393
     79  CE        20.9850   53.0890   61.3500 C.3   225  MET225      0.0692
     80  N         17.3650   48.1540   56.6890 N.3   267  TRP267     -0.1241
     81  CA        17.9000   46.8260   56.9130 C.3   267  TRP267      0.1605
     82  C         16.7780   45.8740   57.3380 C.2   267  TRP267      0.2264
     83  O         16.9480   44.6610   57.1810 O.2   267  TRP267     -0.2867
     84  CB        18.9780   46.9150   57.9900 C.3   267  TRP267      0.0550
     85  CG        20.1300   47.7840   57.5150 C.ar  267  TRP267      0.0003
     86  CD1       20.3900   49.0160   58.0540 C.ar  267  TRP267      0.0946
     87  CD2       20.9680   47.4620   56.4810 C.ar  267  TRP267      0.0152
     88  NE1       21.3900   49.4910   57.3510 N.ar  267  TRP267     -0.2442
     89  CE2       21.7670   48.6140   56.4100 C.ar  267  TRP267      0.0810
     90  CE3       21.1620   46.3860   55.5990 C.ar  267  TRP267      0.0012
     91  CZ2       22.7700   48.6960   55.4460 C.ar  267  TRP267      0.0191
     92  CZ3       22.1620   46.4690   54.6380 C.ar  267  TRP267      0.0001
     93  CH2       22.9570   47.6130   54.5640 C.ar  267  TRP267      0.0015
@<TRIPOS>BOND
     1    93    92   ar
     2    93    91   ar
     3    92    90   ar
     4    91    89   ar
     5    90    87   ar
     6    89    87   ar
     7    89    88   ar
     8    87    85   ar
     9    80    81    1
    10    81    82    1
    11    81    84    1
    12    83    82    2
    13    31    30   ar
    14    88    86   ar
    15    85    84    1
    16    85    86   ar
    17    32    30   ar
    18    71    69    1
    19    30    29    1
    20    69    70    1
    21    69    68    1
    22    29    28    1
    23     8     7    2
    24     6     7    1
    25     6     5    1
    26    72    73    1
    27    75    74    2
    28    28    25    1
    29     7     9   am
    30    74    73    1
    31    73    76    1
    32    64    65    1
    33    68    65    1
    34    65    66    1
    35    78    79    1
    36    78    77    1
    37     5     3   am
    38     4     3    2
    39    27    26    2
    40    12    11    2
    41     3     2    1
    42    25    26    1
    43    25    24    1
    44     9    15    1
    45     9    10    1
    46    76    77    1
    47    15    14    1
    48    26    33   am
    49    11    10    1
    50     1     2    1
    51    66    67    2
    52    10    13    1
    53    14    13    1
    54    33    34    1
    55    34    35    1
    56    34    37    1
    57    39    35   am
    58    39    40    1
    59    35    36    2
    60    40    41    1
    61    37    38    1
    62    52    50   ar
    63    52    51   ar
    64    50    48   ar
    65    41    43   am
    66    41    42    2
    67    51    49   ar
    68    43    44    1
    69    62    63   ar
    70    62    60   ar
    71    48    49   ar
    72    48    47    1
    73    63    61   ar
    74    60    58   ar
    75    47    44    1
    76    61    59   ar
    77    44    45    1
    78    58    59   ar
    79    58    57    1
    80    53    45   am
    81    53    54    1
    82    45    46    2
    83    57    54    1
    84    22    21   ar
    85    23    21   ar
    86    54    55    1
    87    21    20    1
    88    55    56    2
    89    20    17    1
    90    16    17    1
    91    17    18    1
    92    18    19    2
