@<TRIPOS>MOLECULE
tmp/1gxsC01.pdb
 112 108 0 0 0
SMALL
GASTEIGER

@<TRIPOS>ATOM
      1  N          8.3760   45.2270   63.4620 N.3    58  ASN58      -0.1225
      2  CA         9.1990   45.3910   62.2470 C.3    58  ASN58       0.1785
      3  C         10.4740   46.1720   62.5860 C.2    58  ASN58       0.2598
      4  O         10.5900   46.6950   63.7010 O.2    58  ASN58      -0.2718
      5  CB         8.4490   46.1140   61.1830 C.3    58  ASN58       0.1169
      6  CG         7.5700   45.1590   60.4070 C.2    58  ASN58       0.2627
      7  OD1        6.3980   44.9480   60.7120 O.2    58  ASN58      -0.2716
      8  ND2        8.0300   44.5290   59.3490 N.am   58  ASN58      -0.0877
      9  N         11.4940   46.2770   61.7410 N.am   59  GLY59      -0.1942
     10  CA        12.7650   46.9330   62.0840 C.3    59  GLY59       0.2014
     11  C         13.0900   48.0570   61.0930 C.2    59  GLY59       0.2639
     12  O         12.1830   48.8070   60.7480 O.2    59  GLY59      -0.2714
     13  N         14.3190   48.2440   60.6200 N.am   60  GLY60      -0.1954
     14  CA        14.6880   49.2980   59.6980 C.3    60  GLY60       0.1869
     15  C         16.1130   49.7660   60.0360 C.2    60  GLY60       0.2309
     16  O         17.0420   49.5860   59.2250 O.2    60  GLY60      -0.2863
     17  N         10.9020   51.5740   60.6800 N.3    63  CYS63      -0.1235
     18  CA         9.6360   51.2280   60.0310 C.3    63  CYS63       0.1677
     19  C          8.5770   50.6800   60.9850 C.2    63  CYS63       0.2270
     20  O          8.8360   50.1370   62.0660 O.2    63  CYS63      -0.2867
     21  CB         9.9230   50.2220   58.8910 C.3    63  CYS63       0.0956
     22  SG        11.1110   50.8290   57.6430 S.3    63  CYS63      -0.0801
     23  N          3.7580   47.7390   57.8710 N.3    68  LEU68      -0.1245
     24  CA         4.3270   46.4950   57.3810 C.3    68  LEU68       0.1561
     25  C          3.6770   45.2790   58.0790 C.2    68  LEU68       0.2260
     26  O          2.7700   44.6960   57.4600 O.2    68  LEU68      -0.2867
     27  CB         5.8210   46.5150   57.6270 C.3    68  LEU68       0.0270
     28  CG         6.5780   47.6270   56.9130 C.3    68  LEU68       0.0019
     29  CD1        8.0660   47.5370   57.2270 C.3    68  LEU68       0.0001
     30  CD2        6.3490   47.4960   55.4200 C.3    68  LEU68       0.0001
     31  N          0.2440   44.7450   55.5090 N.3    72  GLN72      -0.1245
     32  CA         0.7470   44.1540   54.2910 C.3    72  GLN72       0.1566
     33  C          1.2100   42.7110   54.5200 C.2    72  GLN72       0.2260
     34  O          1.3590   42.0170   53.5130 O.2    72  GLN72      -0.2867
     35  CB         1.9640   44.9430   53.7490 C.3    72  GLN72       0.0367
     36  CG         1.6270   46.3530   53.3040 C.3    72  GLN72       0.0905
     37  CD         2.8680   47.0820   52.8230 C.2    72  GLN72       0.2608
     38  OE1        3.4070   47.9730   53.4820 O.2    72  GLN72      -0.2717
     39  NE2        3.3970   46.7270   51.6690 N.am   72  GLN72      -0.0878
     40  N         10.8720   41.2170   62.1860 N.3   154  GLU154     -0.1245
     41  CA        11.8870   41.4250   61.1740 C.3   154  GLU154      0.1567
     42  C         13.0880   42.2810   61.5100 C.2   154  GLU154      0.2260
     43  O         13.4570   43.1710   60.7540 O.2   154  GLU154     -0.2867
     44  CB        11.1860   41.9720   59.9390 C.3   154  GLU154      0.0388
     45  CG        10.5170   40.8690   59.1630 C.3   154  GLU154      0.1160
     46  CD         9.5810   41.1960   58.0120 C.2   154  GLU154      0.3649
     47  OE1        9.7800   42.1830   57.3420 O.co2 154  GLU154     -0.2457
     48  OE2        8.6270   40.4570   57.7640 O.co2 154  GLU154     -0.2457
     49  N         14.0480   45.5580   42.3830 N.3   246  ASN246     -0.1240
     50  CA        13.6830   45.7800   43.7870 C.3   246  ASN246      0.1653
     51  C         14.6500   44.9500   44.6680 C.2   246  ASN246      0.2266
     52  O         14.4890   43.7370   44.6890 O.2   246  ASN246     -0.2867
     53  CB        12.2540   45.3360   44.0260 C.3   246  ASN246      0.1155
     54  CG        11.8210   45.4990   45.4670 C.2   246  ASN246      0.2627
     55  OD1       12.6210   45.5110   46.4040 O.2   246  ASN246     -0.2716
     56  ND2       10.5310   45.6260   45.7190 N.am  246  ASN246     -0.0877
     57  N         14.8570   43.8310   47.5900 N.3   248  TYR248     -0.1227
     58  CA        14.1800   43.0370   48.5860 C.3   248  TYR248      0.1736
     59  C         13.4840   41.8290   47.9280 C.2   248  TYR248      0.2596
     60  O         12.8780   41.0470   48.6670 O.2   248  TYR248     -0.2718
     61  CB        13.0940   43.8870   49.3290 C.3   248  TYR248      0.0548
     62  CG        13.6800   45.0410   50.1550 C.ar  248  TYR248     -0.0200
     63  CD1       14.1150   44.8500   51.4640 C.ar  248  TYR248     -0.0009
     64  CD2       13.8620   46.2980   49.5660 C.ar  248  TYR248     -0.0009
     65  CE1       14.7380   45.8780   52.1740 C.ar  248  TYR248      0.0417
     66  CE2       14.4780   47.3430   50.2550 C.ar  248  TYR248      0.0417
     67  CZ        14.9150   47.1190   51.5470 C.ar  248  TYR248      0.1957
     68  OH        15.5810   48.1250   52.1810 O.3   248  TYR248     -0.2866
     69  N         13.4160   41.6450   46.6100 N.am  249  THR249     -0.1953
     70  CA        12.7320   40.5380   45.9390 C.3   249  THR249      0.1897
     71  C         13.1430   40.6830   44.4710 C.2   249  THR249      0.2313
     72  O         12.5350   41.3980   43.6510 O.2   249  THR249     -0.2863
     73  CB        11.2060   40.6730   46.2130 C.3   249  THR249      0.1794
     74  OG1       10.6180   39.7200   45.3420 O.3   249  THR249     -0.2208
     75  CG2       10.5910   42.0620   46.0570 C.3   249  THR249      0.0378
     76  N         10.0690   54.7250   50.3000 N.3   262  TYR262     -0.1241
     77  CA        11.2160   54.2440   51.0250 C.3   262  TYR262      0.1605
     78  C         12.4110   54.9290   50.4340 C.2   262  TYR262      0.2264
     79  O         12.7720   54.6610   49.2790 O.2   262  TYR262     -0.2867
     80  CB        11.3430   52.7460   50.8770 C.3   262  TYR262      0.0534
     81  CG        10.1480   51.9260   51.3340 C.ar  262  TYR262     -0.0201
     82  CD1        9.9270   51.6380   52.6830 C.ar  262  TYR262     -0.0009
     83  CD2        9.2850   51.4380   50.3650 C.ar  262  TYR262     -0.0009
     84  CE1        8.8350   50.8540   53.0670 C.ar  262  TYR262      0.0417
     85  CE2        8.1950   50.6500   50.7350 C.ar  262  TYR262      0.0417
     86  CZ         7.9770   50.3550   52.0830 C.ar  262  TYR262      0.1957
     87  OH         6.9370   49.4860   52.3950 O.3   262  TYR262     -0.2866
     88  N         16.6510   50.5000   54.2700 N.3   266  PHE266     -0.1227
     89  CA        16.2290   49.9390   55.5330 C.3   266  PHE266      0.1736
     90  C         16.6830   48.4820   55.6030 C.2   266  PHE266      0.2595
     91  O         16.5010   47.7160   54.6490 O.2   266  PHE266     -0.2718
     92  CB        14.7210   50.1050   55.5960 C.3   266  PHE266      0.0547
     93  CG        14.3020   51.5550   55.7850 C.ar  266  PHE266     -0.0202
     94  CD1       14.5990   52.2270   56.9890 C.ar  266  PHE266     -0.0042
     95  CD2       13.6050   52.2190   54.7530 C.ar  266  PHE266     -0.0042
     96  CE1       14.1910   53.5680   57.1490 C.ar  266  PHE266     -0.0003
     97  CE2       13.1980   53.5570   54.9200 C.ar  266  PHE266     -0.0003
     98  CZ        13.4950   54.2280   56.1200 C.ar  266  PHE266     -0.0000
     99  N         17.3650   48.1540   56.6890 N.am  267  TRP267     -0.1976
    100  CA        17.9000   46.8260   56.9130 C.3   267  TRP267      0.1640
    101  C         16.7780   45.8740   57.3380 C.2   267  TRP267      0.2290
    102  O         16.9480   44.6610   57.1810 O.2   267  TRP267     -0.2864
    103  CB        18.9780   46.9150   57.9900 C.3   267  TRP267      0.0576
    104  CG        20.1300   47.7840   57.5150 C.ar  267  TRP267      0.0006
    105  CD1       20.3900   49.0160   58.0540 C.ar  267  TRP267      0.0946
    106  CD2       20.9680   47.4620   56.4810 C.ar  267  TRP267      0.0152
    107  NE1       21.3900   49.4910   57.3510 N.ar  267  TRP267     -0.2442
    108  CE2       21.7670   48.6140   56.4100 C.ar  267  TRP267      0.0810
    109  CE3       21.1620   46.3860   55.5990 C.ar  267  TRP267      0.0012
    110  CZ2       22.7700   48.6960   55.4460 C.ar  267  TRP267      0.0191
    111  CZ3       22.1620   46.4690   54.6380 C.ar  267  TRP267      0.0001
    112  CH2       22.9570   47.6130   54.5640 C.ar  267  TRP267      0.0015
@<TRIPOS>BOND
     1    49    50    1
     2    72    71    2
     3    50    53    1
     4    50    51    1
     5    53    54    1
     6    71    70    1
     7    51    52    2
     8    74    73    1
     9    54    56   am
    10    54    55    2
    11    70    73    1
    12    70    69    1
    13    75    73    1
    14    69    59   am
    15    57    58    1
    16    59    58    1
    17    59    60    2
    18    58    61    1
    19    79    78    2
    20    61    62    1
    21    64    62   ar
    22    64    66   ar
    23    62    63   ar
    24    66    67   ar
    25    76    77    1
    26    83    85   ar
    27    83    81   ar
    28    78    77    1
    29    85    86   ar
    30    80    77    1
    31    80    81    1
    32    81    82   ar
    33    63    65   ar
    34    67    65   ar
    35    67    68    1
    36    39    37   am
    37    86    87    1
    38    86    84   ar
    39    82    84   ar
    40    37    36    1
    41    37    38    2
    42    36    35    1
    43    34    33    2
    44    35    32    1
    45    88    89    1
    46    32    33    1
    47    32    31    1
    48   112   111   ar
    49   112   110   ar
    50   111   109   ar
    51    91    90    2
    52    95    97   ar
    53    95    93   ar
    54    97    98   ar
    55    30    28    1
    56   110   108   ar
    57    89    92    1
    58    89    90    1
    59    92    93    1
    60   109   106   ar
    61    90    99   am
    62    93    94   ar
    63    98    96   ar
    64   108   106   ar
    65   108   107   ar
    66   106   104   ar
    67    99   100    1
    68    28    29    1
    69    28    27    1
    70   100   101    1
    71   100   103    1
    72    94    96   ar
    73   102   101    2
    74    47    46   ar
    75   107   105   ar
    76    24    27    1
    77    24    23    1
    78    24    25    1
    79    26    25    2
    80   104   103    1
    81   104   105   ar
    82    22    21    1
    83    48    46   ar
    84    46    45    1
    85    21    18    1
    86    45    44    1
    87    16    15    2
    88     8     6   am
    89    14    15    1
    90    14    13    1
    91    44    41    1
    92    18    17    1
    93    18    19    1
    94     6     7    2
    95     6     5    1
    96    13    11   am
    97    12    11    2
    98    43    42    2
    99    19    20    2
   100    11    10    1
   101    41    42    1
   102    41    40    1
   103     5     2    1
   104     9    10    1
   105     9     3   am
   106     2     3    1
   107     2     1    1
   108     3     4    2
