@<TRIPOS>MOLECULE
tmp/1gxzB00.pdb
 74 69 0 0 0
SMALL
GASTEIGER

@<TRIPOS>ATOM
      1  N         29.1570   35.7530   30.5870 N.3   123  ARG123     -0.1231
      2  CA        28.5640   34.4790   30.2380 C.3   123  ARG123      0.1694
      3  C         27.6290   34.1080   31.3620 C.2   123  ARG123      0.2592
      4  O         28.0570   34.0020   32.5120 O.2   123  ARG123     -0.2718
      5  CB        29.6350   33.3860   30.0740 C.3   123  ARG123      0.0321
      6  CG        29.0520   31.9740   29.8560 C.3   123  ARG123      0.0489
      7  CD        30.1570   30.9030   29.7760 C.3   123  ARG123      0.2205
      8  NE        29.6330   29.5350   29.8290 N.pl3 123  ARG123     -0.0865
      9  CZ        29.0460   28.8960   28.8170 C.cat 123  ARG123      0.5346
     10  NH1       28.8930   29.4900   27.6320 N.pl3 123  ARG123      0.1354
     11  NH2       28.6030   27.6530   28.9930 N.pl3 123  ARG123      0.1354
     12  N         26.3520   33.9340   31.0360 N.am  124  GLY124     -0.1957
     13  CA        25.3950   33.5450   32.0540 C.3   124  GLY124      0.1869
     14  C         25.0860   32.0690   31.9210 C.2   124  GLY124      0.2309
     15  O         25.2340   31.4960   30.8300 O.2   124  GLY124     -0.2863
     16  N         31.2730   30.1150   24.9730 N.3   144  SER144     -0.1202
     17  CA        30.6600   31.2850   24.3640 C.3   144  SER144      0.2020
     18  C         30.4400   32.3640   25.4210 C.2   144  SER144      0.2619
     19  O         30.0650   32.0680   26.5470 O.2   144  SER144     -0.2717
     20  CB        29.3150   30.9100   23.7490 C.3   144  SER144      0.2103
     21  OG        29.4830   30.0170   22.6680 O.3   144  SER144     -0.2182
     22  N         30.6760   33.6100   25.0460 N.am  145  SER145     -0.1937
     23  CA        30.4730   34.7350   25.9540 C.3   145  SER145      0.2055
     24  C         30.0150   35.9280   25.1150 C.2   145  SER145      0.2643
     25  O         30.0080   35.8610   23.8780 O.2   145  SER145     -0.2714
     26  CB        31.7710   35.0650   26.7040 C.3   145  SER145      0.2130
     27  OG        32.7820   35.5590   25.8340 O.3   145  SER145     -0.2179
     28  N         29.6190   37.0140   25.7730 N.am  146  SER146     -0.1949
     29  CA        29.1620   38.1890   25.0380 C.3   146  SER146      0.1924
     30  C         29.8010   39.4710   25.5430 C.2   146  SER146      0.2314
     31  O         30.1760   39.5640   26.7130 O.2   146  SER146     -0.2863
     32  CB        27.6350   38.3100   25.1370 C.3   146  SER146      0.2116
     33  OG        27.1740   39.4880   24.4980 O.3   146  SER146     -0.2180
     34  N         23.0040   40.5470   27.1860 N.3   151  VAL151     -0.1231
     35  CA        22.8560   39.3260   26.4080 C.3   151  VAL151      0.1692
     36  C         23.1500   38.0890   27.2760 C.2   151  VAL151      0.2591
     37  O         22.4320   37.0880   27.2140 O.2   151  VAL151     -0.2718
     38  CB        23.7760   39.3540   25.1500 C.3   151  VAL151      0.0266
     39  CG1       23.8640   37.9640   24.5180 C.3   151  VAL151      0.0020
     40  CG2       23.2070   40.3250   24.1230 C.3   151  VAL151      0.0020
     41  N         24.1890   38.1750   28.0980 N.am  152  ALA152     -0.1980
     42  CA        24.5730   37.0670   28.9690 C.3   152  ALA152      0.1597
     43  C         23.4950   36.7760   30.0070 C.2   152  ALA152      0.2287
     44  O         23.3250   35.6380   30.4480 O.2   152  ALA152     -0.2864
     45  CB        25.8880   37.3920   29.6760 C.3   152  ALA152      0.0319
     46  N         19.9270   32.1590   28.3240 N.3   157  PHE157     -0.1241
     47  CA        21.1290   31.6590   28.9920 C.3   157  PHE157      0.1605
     48  C         21.2180   31.7760   30.5100 C.2   157  PHE157      0.2264
     49  O         21.9400   31.0140   31.1560 O.2   157  PHE157     -0.2867
     50  CB        22.3580   32.3920   28.4550 C.3   157  PHE157      0.0534
     51  CG        22.4830   32.3910   26.9690 C.ar  157  PHE157     -0.0203
     52  CD1       22.5430   31.1950   26.2590 C.ar  157  PHE157     -0.0042
     53  CD2       22.5980   33.5900   26.2780 C.ar  157  PHE157     -0.0042
     54  CE1       22.7190   31.1950   24.8780 C.ar  157  PHE157     -0.0003
     55  CE2       22.7740   33.6010   24.8980 C.ar  157  PHE157     -0.0003
     56  CZ        22.8340   32.4040   24.1990 C.ar  157  PHE157     -0.0000
     57  N         24.1220   38.7960   19.2300 N.3   184  GLN184     -0.1245
     58  CA        24.6210   38.2170   20.4640 C.3   184  GLN184      0.1566
     59  C         25.9910   38.7830   20.8330 C.2   184  GLN184      0.2260
     60  O         26.4970   38.5390   21.9310 O.2   184  GLN184     -0.2867
     61  CB        24.6540   36.6820   20.3560 C.3   184  GLN184      0.0367
     62  CG        23.2850   36.0390   20.6230 C.3   184  GLN184      0.0905
     63  CD        23.3120   34.5150   20.6100 C.2   184  GLN184      0.2608
     64  OE1       22.4070   33.8660   21.1400 O.2   184  GLN184     -0.2717
     65  NE2       24.3410   33.9370   19.9950 N.am  184  GLN184     -0.0878
     66  N         28.8300   37.9290   20.2410 N.3   186  GLU186     -0.1245
     67  CA        29.6240   36.8410   20.7990 C.3   186  GLU186      0.1567
     68  C         31.1450   36.8430   20.6600 C.2   186  GLU186      0.2260
     69  O         31.7100   37.1640   19.6070 O.2   186  GLU186     -0.2867
     70  CB        29.0980   35.4900   20.2820 C.3   186  GLU186      0.0388
     71  CG        29.8830   34.3170   20.8680 C.3   186  GLU186      0.1160
     72  CD        29.3100   32.9450   20.5310 C.2   186  GLU186      0.3649
     73  OE1       28.2530   32.8580   19.8620 O.co2 186  GLU186     -0.2457
     74  OE2       29.9330   31.9480   20.9510 O.co2 186  GLU186     -0.2457
@<TRIPOS>BOND
     1    57    58    1
     2    69    68    2
     3    73    72   ar
     4    65    63   am
     5    66    67    1
     6    70    67    1
     7    70    71    1
     8    61    58    1
     9    61    62    1
    10    58    59    1
    11    72    71    1
    12    72    74   ar
    13    63    62    1
    14    63    64    2
    15    68    67    1
    16    59    60    2
    17    21    20    1
    18    20    17    1
    19    25    24    2
    20    40    38    1
    21    56    54   ar
    22    56    55   ar
    23    17    16    1
    24    17    18    1
    25    33    32    1
    26    39    38    1
    27    54    52   ar
    28    55    53   ar
    29    29    32    1
    30    29    30    1
    31    29    28    1
    32    22    18   am
    33    22    23    1
    34    24    28   am
    35    24    23    1
    36    38    35    1
    37    18    19    2
    38    30    31    2
    39    27    26    1
    40    23    26    1
    41    52    51   ar
    42    53    51   ar
    43    35    34    1
    44    35    36    1
    45    51    50    1
    46    37    36    2
    47    36    41   am
    48    10     9    1
    49    41    42    1
    50    46    47    1
    51    50    47    1
    52     9    11    1
    53     9     8    2
    54    42    45    1
    55    42    43    1
    56    47    48    1
    57     7     8    1
    58     7     6    1
    59     6     5    1
    60    43    44    2
    61     5     2    1
    62     2     1    1
    63     2     3    1
    64    48    49    2
    65    15    14    2
    66    12     3   am
    67    12    13    1
    68     3     4    2
    69    14    13    1
