@<TRIPOS>MOLECULE
tmp/1gy8C01.pdb
 168 161 0 0 0
SMALL
GASTEIGER

@<TRIPOS>ATOM
      1  N         34.4480   53.1670  101.6200 N.3   106  VAL106     -0.1245
      2  CA        35.2990   53.1620  100.4320 C.3   106  VAL106      0.1561
      3  C         36.5030   52.2370  100.5620 C.2   106  VAL106      0.2260
      4  O         36.8180   51.4850   99.6360 O.2   106  VAL106     -0.2867
      5  CB        35.7970   54.5800  100.0960 C.3   106  VAL106      0.0252
      6  CG1       36.9030   54.5120   99.0410 C.3   106  VAL106      0.0019
      7  CG2       34.6400   55.4250   99.5780 C.3   106  VAL106      0.0019
      8  N         33.1440   50.9990   95.4160 N.3   170  TYR170     -0.1241
      9  CA        32.0070   51.7110   95.9850 C.3   170  TYR170      0.1605
     10  C         31.5430   52.7540   94.9670 C.2   170  TYR170      0.2264
     11  O         30.3480   52.8590   94.6770 O.2   170  TYR170     -0.2867
     12  CB        32.4020   52.4120   97.2900 C.3   170  TYR170      0.0534
     13  CG        31.3640   53.4000   97.7920 C.ar  170  TYR170     -0.0201
     14  CD1       30.1530   52.9630   98.3290 C.ar  170  TYR170     -0.0009
     15  CD2       31.5990   54.7710   97.7330 C.ar  170  TYR170     -0.0009
     16  CE1       29.2070   53.8670   98.7990 C.ar  170  TYR170      0.0417
     17  CE2       30.6600   55.6780   98.2000 C.ar  170  TYR170      0.0417
     18  CZ        29.4700   55.2200   98.7350 C.ar  170  TYR170      0.1957
     19  OH        28.5650   56.1260   99.2420 O.3   170  TYR170     -0.2866
     20  N         28.3160   64.8340   99.1020 N.3   198  PHE198     -0.1227
     21  CA        29.7540   64.8220   99.2320 C.3   198  PHE198      0.1736
     22  C         30.0400   64.2830  100.6410 C.2   198  PHE198      0.2595
     23  O         29.5770   63.1900  100.9540 O.2   198  PHE198     -0.2718
     24  CB        30.3050   66.2210   98.9300 C.3   198  PHE198      0.0547
     25  CG        30.4900   66.4550   97.4500 C.ar  198  PHE198     -0.0202
     26  CD1       29.4210   66.2680   96.5670 C.ar  198  PHE198     -0.0042
     27  CD2       31.7470   66.7300   96.9230 C.ar  198  PHE198     -0.0042
     28  CE1       29.6040   66.3380   95.1930 C.ar  198  PHE198     -0.0003
     29  CE2       31.9430   66.8030   95.5510 C.ar  198  PHE198     -0.0003
     30  CZ        30.8710   66.6040   94.6790 C.ar  198  PHE198     -0.0000
     31  N         30.7560   64.9820  101.5100 N.am  199  ASN199     -0.1974
     32  CA        30.9740   64.3780  102.8300 C.3   199  ASN199      0.1688
     33  C         29.9650   64.7680  103.8960 C.2   199  ASN199      0.2292
     34  O         30.0890   65.8120  104.5450 O.2   199  ASN199     -0.2864
     35  CB        32.4010   64.6440  103.3180 C.3   199  ASN199      0.1181
     36  CG        33.4290   63.8100  102.5660 C.2   199  ASN199      0.2629
     37  OD1       33.5650   63.9240  101.3440 O.2   199  ASN199     -0.2716
     38  ND2       34.1360   62.9530  103.2820 N.am  199  ASN199     -0.0877
     39  N         33.6170   54.4720  110.0630 N.3   217  THR217     -0.1203
     40  CA        34.7860   54.4950  109.1990 C.3   217  THR217      0.1994
     41  C         35.0490   55.9280  108.7280 C.2   217  THR217      0.2618
     42  O         36.0240   56.1860  108.0220 O.2   217  THR217     -0.2717
     43  CB        34.5910   53.6050  107.9400 C.3   217  THR217      0.1784
     44  OG1       33.5450   54.1500  107.1220 O.3   217  THR217     -0.2211
     45  CG2       34.2350   52.1680  108.3390 C.3   217  THR217      0.0376
     46  N         34.1860   56.8620  109.1240 N.am  218  HIS218     -0.1961
     47  CA        34.3330   58.2510  108.6960 C.3   218  HIS218      0.1787
     48  C         35.1830   59.1290  109.6020 C.2   218  HIS218      0.2620
     49  O         35.1840   58.9790  110.8240 O.2   218  HIS218     -0.2715
     50  CB        32.9530   58.8860  108.4830 C.3   218  HIS218      0.0785
     51  CG        32.1960   58.2860  107.3390 C.ar  218  HIS218      0.0821
     52  ND1       31.2070   57.3410  107.5090 N.ar  218  HIS218     -0.2267
     53  CD2       32.3440   58.4360  106.0000 C.ar  218  HIS218      0.1154
     54  CE1       30.7810   56.9340  106.3270 C.ar  218  HIS218      0.1986
     55  NE2       31.4550   57.5820  105.3940 N.ar  218  HIS218     -0.2212
     56  N         35.9010   60.0530  108.9710 N.am  219  LEU219     -0.1977
     57  CA        36.8140   60.9750  109.6390 C.3   219  LEU219      0.1596
     58  C         36.3590   61.6570  110.9320 C.2   219  LEU219      0.2287
     59  O         36.9080   61.3910  112.0050 O.2   219  LEU219     -0.2864
     60  CB        37.2720   62.0480  108.6460 C.3   219  LEU219      0.0297
     61  CG        38.3100   63.0400  109.1770 C.3   219  LEU219      0.0022
     62  CD1       39.5550   62.2890  109.6370 C.3   219  LEU219      0.0001
     63  CD2       38.6560   64.0470  108.0880 C.3   219  LEU219      0.0001
     64  N         35.3480   59.4640  113.8560 N.3   222  ILE222     -0.1245
     65  CA        36.5440   58.8360  114.4140 C.3   222  ILE222      0.1561
     66  C         37.3420   59.8280  115.2700 C.2   222  ILE222      0.2260
     67  O         37.8220   59.4720  116.3460 O.2   222  ILE222     -0.2867
     68  CB        37.4360   58.2430  113.2930 C.3   222  ILE222      0.0252
     69  CG1       36.7230   57.0410  112.6630 C.3   222  ILE222      0.0019
     70  CG2       38.7960   57.8060  113.8640 C.3   222  ILE222      0.0019
     71  CD1       37.4230   56.4690  111.4510 C.3   222  ILE222      0.0001
     72  N         45.3100   60.3110  116.6030 N.3   241  MET241     -0.1231
     73  CA        44.4370   60.4120  115.4460 C.3   241  MET241      0.1687
     74  C         45.1920   60.1540  114.1350 C.2   241  MET241      0.2434
     75  O         46.0580   60.9370  113.7330 O.2   241  MET241     -0.2733
     76  CB        43.7750   61.7960  115.4220 C.3   241  MET241      0.0400
     77  CG        42.7930   62.0030  114.2860 C.3   241  MET241      0.0596
     78  SD        41.5240   60.7320  114.2410 S.3   241  MET241     -0.1393
     79  CE        41.2030   60.6120  112.5000 C.3   241  MET241      0.0692
     80  N         44.8560   59.0440  113.4510 N.am  242  PRO242     -0.2718
     81  CA        45.4590   58.6250  112.1860 C.3   242  PRO242      0.1535
     82  C         45.1170   59.5330  111.0170 C.2   242  PRO242      0.2598
     83  O         43.9710   59.9350  110.8210 O.2   242  PRO242     -0.2715
     84  CB        44.8790   57.2270  111.9540 C.3   242  PRO242      0.0310
     85  CG        44.3650   56.8030  113.2910 C.3   242  PRO242      0.0237
     86  CD        43.8370   58.0700  113.8750 C.3   242  PRO242      0.0939
     87  N         46.1270   59.8590  110.2370 N.am  243  ILE243     -0.1964
     88  CA        45.9170   60.6550  109.0400 C.3   243  ILE243      0.1727
     89  C         46.3040   59.7310  107.8860 C.2   243  ILE243      0.2616
     90  O         47.4760   59.3790  107.7530 O.2   243  ILE243     -0.2715
     91  CB        46.8130   61.9010  109.0260 C.3   243  ILE243      0.0290
     92  CG1       46.3630   62.8700  110.1240 C.3   243  ILE243      0.0022
     93  CG2       46.7650   62.5570  107.6520 C.3   243  ILE243      0.0023
     94  CD1       47.1640   64.1550  110.1940 C.3   243  ILE243      0.0001
     95  N         45.3300   59.3200  107.0730 N.am  244  PHE244     -0.1974
     96  CA        45.6120   58.4090  105.9650 C.3   244  PHE244      0.1639
     97  C         46.2130   59.1080  104.7560 C.2   244  PHE244      0.2290
     98  O         45.4950   59.6290  103.9010 O.2   244  PHE244     -0.2864
     99  CB        44.3500   57.6530  105.5350 C.3   244  PHE244      0.0560
    100  CG        43.7260   56.8210  106.6230 C.ar  244  PHE244     -0.0200
    101  CD1       44.4870   56.3440  107.6870 C.ar  244  PHE244     -0.0042
    102  CD2       42.3710   56.4880  106.5650 C.ar  244  PHE244     -0.0042
    103  CE1       43.9100   55.5470  108.6810 C.ar  244  PHE244     -0.0003
    104  CE2       41.7840   55.6960  107.5470 C.ar  244  PHE244     -0.0003
    105  CZ        42.5510   55.2230  108.6080 C.ar  244  PHE244     -0.0000
    106  N         44.0320   64.5940  101.9490 N.3   255  CYS255     -0.1235
    107  CA        42.8080   64.6690  101.1600 C.3   255  CYS255      0.1677
    108  C         41.9210   65.8410  101.5360 C.2   255  CYS255      0.2270
    109  O         41.7610   66.1610  102.7110 O.2   255  CYS255     -0.2867
    110  CB        42.0220   63.3670  101.2960 C.3   255  CYS255      0.0956
    111  SG        42.8750   61.9440  100.5840 S.3   255  CYS255     -0.0801
    112  N         38.1050   67.4960  101.3210 N.3   257  ARG257     -0.1245
    113  CA        36.7180   67.0930  101.1720 C.3   257  ARG257      0.1563
    114  C         35.7820   68.2640  101.4320 C.2   257  ARG257      0.2260
    115  O         36.1880   69.2920  101.9710 O.2   257  ARG257     -0.2867
    116  CB        36.4070   65.9390  102.1280 C.3   257  ARG257      0.0307
    117  CG        37.1800   64.6470  101.8370 C.3   257  ARG257      0.0489
    118  CD        36.6570   63.9510  100.5820 C.3   257  ARG257      0.2205
    119  NE        37.2720   62.6400  100.3590 N.pl3 257  ARG257     -0.0865
    120  CZ        38.3890   62.4370   99.6620 C.cat 257  ARG257      0.5346
    121  NH1       39.0300   63.4630   99.1160 N.pl3 257  ARG257      0.1354
    122  NH2       38.8510   61.1990   99.4870 N.pl3 257  ARG257      0.1354
    123  N         32.5130   69.0820  103.4160 N.3   259  TYR259     -0.1241
    124  CA        31.6380   68.6160  104.4860 C.3   259  TYR259      0.1605
    125  C         30.2940   69.3460  104.5170 C.2   259  TYR259      0.2264
    126  O         30.2120   70.5330  104.8630 O.2   259  TYR259     -0.2867
    127  CB        32.3740   68.7290  105.8270 C.3   259  TYR259      0.0534
    128  CG        33.6140   67.8530  105.8550 C.ar  259  TYR259     -0.0201
    129  CD1       34.8360   68.3160  105.3590 C.ar  259  TYR259     -0.0009
    130  CD2       33.5370   66.5230  106.2840 C.ar  259  TYR259     -0.0009
    131  CE1       35.9550   67.4700  105.2830 C.ar  259  TYR259      0.0417
    132  CE2       34.6400   65.6730  106.2080 C.ar  259  TYR259      0.0417
    133  CZ        35.8440   66.1520  105.7030 C.ar  259  TYR259      0.1957
    134  OH        36.9190   65.2970  105.5950 O.3   259  TYR259     -0.2866
    135  N         42.2960   66.9870  105.6460 N.3   301  VAL301     -0.1245
    136  CA        42.1850   66.1930  106.8560 C.3   301  VAL301      0.1561
    137  C         42.8040   66.9600  108.0250 C.2   301  VAL301      0.2260
    138  O         42.2610   66.9540  109.1250 O.2   301  VAL301     -0.2867
    139  CB        42.8880   64.8310  106.6990 C.3   301  VAL301      0.0252
    140  CG1       42.8130   64.0540  108.0100 C.3   301  VAL301      0.0019
    141  CG2       42.2270   64.0370  105.5750 C.3   301  VAL301      0.0019
    142  N         44.8580   55.4800  102.2770 N.3   324  ARG324     -0.1245
    143  CA        43.8480   54.4270  102.3660 C.3   324  ARG324      0.1563
    144  C         43.4370   54.2380  100.9080 C.2   324  ARG324      0.2260
    145  O         42.9490   55.1760  100.2760 O.2   324  ARG324     -0.2867
    146  CB        42.6430   54.8900  103.1880 C.3   324  ARG324      0.0307
    147  CG        41.5120   53.8740  103.2170 C.3   324  ARG324      0.0489
    148  CD        40.1790   54.5600  102.9790 C.3   324  ARG324      0.2205
    149  NE        39.5790   55.0270  104.2190 N.pl3 324  ARG324     -0.0865
    150  CZ        38.7040   56.0230  104.2950 C.cat 324  ARG324      0.5346
    151  NH1       38.3290   56.6740  103.1970 N.pl3 324  ARG324      0.1354
    152  NH2       38.1910   56.3510  105.4720 N.pl3 324  ARG324      0.1354
    153  N         40.8400   56.3000   97.8620 N.3   327  ASP327     -0.1239
    154  CA        40.6290   57.7290   98.0970 C.3   327  ASP327      0.1674
    155  C         41.1250   58.7100   97.0400 C.2   327  ASP327      0.2266
    156  O         42.3080   58.7170   96.6920 O.2   327  ASP327     -0.2867
    157  CB        41.2760   58.1710   99.4220 C.3   327  ASP327      0.1410
    158  CG        40.5700   57.6270  100.6500 C.2   327  ASP327      0.3668
    159  OD1       39.4470   57.0880  100.5330 O.co2 327  ASP327     -0.2456
    160  OD2       41.1510   57.7540  101.7490 O.co2 327  ASP327     -0.2456
    161  N         37.8120   66.2840   96.5570 N.3   331  LEU331     -0.1245
    162  CA        36.4010   66.1410   96.2340 C.3   331  LEU331      0.1561
    163  C         35.6150   67.2750   96.8800 C.2   331  LEU331      0.2260
    164  O         35.2520   67.1960   98.0530 O.2   331  LEU331     -0.2867
    165  CB        35.8670   64.7860   96.7220 C.3   331  LEU331      0.0270
    166  CG        36.4040   63.4990   96.0790 C.3   331  LEU331      0.0019
    167  CD1       35.8350   62.2900   96.8000 C.3   331  LEU331      0.0001
    168  CD2       36.0270   63.4620   94.6030 C.3   331  LEU331      0.0001
@<TRIPOS>BOND
     1   168   166    1
     2    11    10    2
     3    30    28   ar
     4    30    29   ar
     5    10     9    1
     6    28    26   ar
     7     8     9    1
     8    29    27   ar
     9     9    12    1
    10   166   165    1
    11   166   167    1
    12   162   161    1
    13   162   165    1
    14   162   163    1
    15    26    25   ar
    16   156   155    2
    17   163   164    2
    18    27    25   ar
    19   155   154    1
    20    12    13    1
    21    25    24    1
    22    15    13   ar
    23    15    17   ar
    24    13    14   ar
    25   153   154    1
    26   154   157    1
    27    17    18   ar
    28    14    16   ar
    29    18    16   ar
    30    18    19    1
    31    24    21    1
    32     6     5    1
    33    20    21    1
    34   121   120    1
    35    21    22    1
    36   157   158    1
    37   122   120    1
    38     7     5    1
    39     4     3    2
    40   120   119    2
    41     5     2    1
    42   145   144    2
    43   119   118    1
    44     2     3    1
    45     2     1    1
    46   159   158   ar
    47   118   117    1
    48   111   110    1
    49    22    23    2
    50    22    31   am
    51   158   160   ar
    52   144   143    1
    53   107   110    1
    54   107   108    1
    55   107   106    1
    56   113   112    1
    57   113   114    1
    58   113   116    1
    59    37    36    2
    60   114   115    2
    61    31    32    1
    62   108   109    2
    63   117   116    1
    64   142   143    1
    65   143   146    1
    66    36    38   am
    67    36    35    1
    68    32    35    1
    69    32    33    1
    70   148   147    1
    71   148   149    1
    72   146   147    1
    73   151   150    1
    74   123   124    1
    75    33    34    2
    76    98    97    2
    77   149   150    2
    78   150   152    1
    79   124   125    1
    80   124   127    1
    81   125   126    2
    82    97    96    1
    83   131   129   ar
    84   131   133   ar
    85   129   128   ar
    86    55    53   ar
    87    55    54   ar
    88    99    96    1
    89    99   100    1
    90   141   139    1
    91   134   133    1
    92   135   136    1
    93   133   132   ar
    94   127   128    1
    95   128   130   ar
    96    96    95    1
    97    53    51   ar
    98   132   130   ar
    99    54    52   ar
   100   102   100   ar
   101   102   104   ar
   102   100   101   ar
   103   139   136    1
   104   139   140    1
   105   136   137    1
   106    95    89   am
   107    44    43    1
   108    51    52   ar
   109    51    50    1
   110   104   105   ar
   111    93    91    1
   112   101   103   ar
   113    90    89    2
   114    89    88    1
   115    43    45    1
   116    43    40    1
   117    42    41    2
   118   137   138    2
   119    63    61    1
   120    50    47    1
   121   105   103   ar
   122    60    61    1
   123    60    57    1
   124    47    46    1
   125    47    48    1
   126    41    46   am
   127    41    40    1
   128    56    48   am
   129    56    57    1
   130    91    88    1
   131    91    92    1
   132    88    87    1
   133    61    62    1
   134    40    39    1
   135    48    49    2
   136    57    58    1
   137    92    94    1
   138    87    82   am
   139    83    82    2
   140    58    59    2
   141    82    81    1
   142    71    69    1
   143    84    81    1
   144    84    85    1
   145    81    80    1
   146    79    78    1
   147    69    68    1
   148    85    86    1
   149    68    70    1
   150    68    65    1
   151    80    86    1
   152    80    74   am
   153    75    74    2
   154    64    65    1
   155    74    73    1
   156    78    77    1
   157    77    76    1
   158    65    66    1
   159    66    67    2
   160    76    73    1
   161    73    72    1
