@<TRIPOS>MOLECULE
tmp/1gykD00.pdb
 100 92 0 0 0
SMALL
GASTEIGER

@<TRIPOS>ATOM
      1  N         50.7890   32.7490   -9.1300 N.3    58  ASP58      -0.1225
      2  CA        51.9580   32.5100   -8.2520 C.3    58  ASP58       0.1805
      3  C         51.5060   31.9710   -6.9010 C.2    58  ASP58       0.2597
      4  O         50.5640   32.5020   -6.3580 O.2    58  ASP58      -0.2718
      5  CB        52.7900   33.8260   -8.0630 C.3    58  ASP58       0.1424
      6  CG        54.0660   33.6470   -7.2010 C.2    58  ASP58       0.3668
      7  OD1       54.7740   32.6370   -7.3670 O.co2  58  ASP58      -0.2456
      8  OD2       54.3210   34.4810   -6.3140 O.co2  58  ASP58      -0.2456
      9  N         52.2620   31.0130   -6.3370 N.am   59  ASN59      -0.1974
     10  CA        52.0450   30.3340   -5.0130 C.3    59  ASN59       0.1688
     11  C         50.7090   29.5990   -4.9250 C.2    59  ASN59       0.2292
     12  O         49.9740   29.6650   -3.9120 O.2    59  ASN59      -0.2864
     13  CB        52.2380   31.2940   -3.7930 C.3    59  ASN59       0.1181
     14  CG        53.5670   32.0240   -3.7900 C.2    59  ASN59       0.2629
     15  OD1       54.4870   31.7390   -4.5880 O.2    59  ASN59      -0.2716
     16  ND2       53.6900   32.9640   -2.8600 N.am   59  ASN59      -0.0877
     17  N         52.4140   25.6840   -2.8750 N.3    62  LEU62      -0.1245
     18  CA        53.7850   25.7950   -2.3770 C.3    62  LEU62       0.1561
     19  C         54.0450   25.2050   -0.9810 C.2    62  LEU62       0.2260
     20  O         53.4030   25.6190   -0.0190 O.2    62  LEU62      -0.2867
     21  CB        54.3040   27.2540   -2.4960 C.3    62  LEU62       0.0270
     22  CG        55.6450   27.7490   -1.9100 C.3    62  LEU62       0.0019
     23  CD1       56.8030   27.2010   -2.6920 C.3    62  LEU62       0.0001
     24  CD2       55.6800   29.2150   -1.9210 C.3    62  LEU62       0.0001
     25  N         56.7900   25.2360    1.7050 N.3    64  TYR64      -0.1241
     26  CA        57.8490   26.1420    2.1280 C.3    64  TYR64       0.1605
     27  C         58.3040   25.8880    3.5430 C.2    64  TYR64       0.2264
     28  O         57.4710   25.7220    4.4240 O.2    64  TYR64      -0.2867
     29  CB        57.2790   27.5840    2.0120 C.3    64  TYR64       0.0534
     30  CG        58.2840   28.7100    1.9280 C.ar   64  TYR64      -0.0201
     31  CD1       59.0530   28.9180    0.7270 C.ar   64  TYR64      -0.0009
     32  CD2       58.4810   29.6120    3.0310 C.ar   64  TYR64      -0.0009
     33  CE1       60.0210   30.0160    0.6100 C.ar   64  TYR64       0.0417
     34  CE2       59.4370   30.7240    2.9230 C.ar   64  TYR64       0.0417
     35  CZ        60.1880   30.9070    1.7130 C.ar   64  TYR64       0.1957
     36  OH        61.0580   31.9570    1.5620 O.3    64  TYR64      -0.2866
     37  N         59.9920   27.5710    6.6740 N.3    66  GLU66      -0.1245
     38  CA        60.2900   28.8960    7.2420 C.3    66  GLU66       0.1567
     39  C         61.6260   29.0080    7.9720 C.2    66  GLU66       0.2260
     40  O         62.3920   29.9640    7.7820 O.2    66  GLU66      -0.2867
     41  CB        59.1720   29.3370    8.2120 C.3    66  GLU66       0.0388
     42  CG        57.7350   29.4040    7.6490 C.3    66  GLU66       0.1160
     43  CD        57.4980   30.4830    6.5670 C.2    66  GLU66       0.3649
     44  OE1       58.1960   31.5340    6.5420 O.co2  66  GLU66      -0.2457
     45  OE2       56.5910   30.2630    5.7320 O.co2  66  GLU66      -0.2457
     46  N         51.0250   26.7810    1.0020 N.3    74  TYR74      -0.1241
     47  CA        50.3420   27.8250    0.2870 C.3    74  TYR74       0.1605
     48  C         49.3690   27.1870   -0.6830 C.2    74  TYR74       0.2264
     49  O         49.7170   26.2290   -1.3520 O.2    74  TYR74      -0.2867
     50  CB        51.2880   28.7130   -0.5040 C.3    74  TYR74       0.0534
     51  CG        52.1820   29.6410    0.2670 C.ar   74  TYR74      -0.0201
     52  CD1       53.3170   29.1430    1.0150 C.ar   74  TYR74      -0.0009
     53  CD2       51.9770   31.0630    0.1880 C.ar   74  TYR74      -0.0009
     54  CE1       54.2480   30.0610    1.6660 C.ar   74  TYR74       0.0417
     55  CE2       52.8980   32.0020    0.8370 C.ar   74  TYR74       0.0417
     56  CZ        54.0160   31.4910    1.5650 C.ar   74  TYR74       0.1957
     57  OH        54.8410   32.3870    2.1780 O.3    74  TYR74      -0.2866
     58  N         48.4690   31.2990    2.9190 N.3    79  LYS79      -0.1245
     59  CA        49.3390   30.3850    3.6630 C.3    79  LYS79       0.1561
     60  C         48.7600   29.8470    4.9740 C.2    79  LYS79       0.2260
     61  O         47.8110   30.4160    5.5440 O.2    79  LYS79      -0.2867
     62  CB        50.7710   30.9480    3.8420 C.3    79  LYS79       0.0271
     63  CG        50.9700   32.1340    4.8150 C.3    79  LYS79       0.0035
     64  CD        52.3850   32.7250    4.7890 C.3    79  LYS79       0.0206
     65  CE        53.4720   31.8310    5.3950 C.3    79  LYS79       0.1093
     66  NZ        54.8370   32.4330    5.2540 N.3    79  LYS79      -0.1314
     67  N         62.0680   28.3060   -6.1730 N.3   136  GLU136     -0.1245
     68  CA        60.7490   28.9310   -5.9180 C.3   136  GLU136      0.1567
     69  C         60.4450   29.7800   -7.1610 C.2   136  GLU136      0.2260
     70  O         61.2110   30.7000   -7.4940 O.2   136  GLU136     -0.2867
     71  CB        60.8190   29.8940   -4.6960 C.3   136  GLU136      0.0388
     72  CG        59.5170   30.1310   -3.8810 C.3   136  GLU136      0.1160
     73  CD        58.4400   30.9370   -4.5740 C.2   136  GLU136      0.3649
     74  OE1       58.7140   32.0980   -4.9850 O.co2 136  GLU136     -0.2457
     75  OE2       57.3490   30.3650   -4.7570 O.co2 136  GLU136     -0.2457
     76  N         58.2930   32.7020   -9.2160 N.3   138  ASP138     -0.1239
     77  CA        57.5340   33.9660   -9.0640 C.3   138  ASP138      0.1674
     78  C         56.8490   34.3610  -10.3910 C.2   138  ASP138      0.2266
     79  O         56.3920   35.5040  -10.5840 O.2   138  ASP138     -0.2867
     80  CB        58.3280   35.1380   -8.4340 C.3   138  ASP138      0.1410
     81  CG        58.5140   35.0270   -6.9130 C.2   138  ASP138      0.3668
     82  OD1       57.6800   34.4490   -6.1760 O.co2 138  ASP138     -0.2456
     83  OD2       59.5110   35.5980   -6.4430 O.co2 138  ASP138     -0.2456
     84  N         64.6470   33.1200   -7.0220 N.3   145  ASP145     -0.1239
     85  CA        65.3310   33.8590   -5.9610 C.3   145  ASP145      0.1674
     86  C         66.3290   32.9130   -5.2620 C.2   145  ASP145      0.2266
     87  O         65.9160   31.9200   -4.6580 O.2   145  ASP145     -0.2867
     88  CB        64.2490   34.4100   -4.9880 C.3   145  ASP145      0.1410
     89  CG        64.7780   35.4150   -3.9520 C.2   145  ASP145      0.3668
     90  OD1       65.9840   35.7500   -3.8730 O.co2 145  ASP145     -0.2456
     91  OD2       63.9440   35.8510   -3.1480 O.co2 145  ASP145     -0.2456
     92  N         65.7310   31.8050   -1.5750 N.3   148  GLN148     -0.1245
     93  CA        64.6670   30.8210   -1.4450 C.3   148  GLN148      0.1566
     94  C         65.0560   29.4600   -2.0700 C.2   148  GLN148      0.2260
     95  O         64.2500   28.5310   -2.0350 O.2   148  GLN148     -0.2867
     96  CB        63.3930   31.3510   -2.0920 C.3   148  GLN148      0.0367
     97  CG        62.8180   32.6210   -1.5100 C.3   148  GLN148      0.0905
     98  CD        61.4730   32.9470   -2.1110 C.2   148  GLN148      0.2608
     99  OE1       61.3090   32.9790   -3.3450 O.2   148  GLN148     -0.2717
    100  NE2       60.5010   33.2360   -1.2430 N.am  148  GLN148     -0.0878
@<TRIPOS>BOND
     1    79    78    2
     2    78    77    1
     3    76    77    1
     4     1     2    1
     5    77    80    1
     6    80    81    1
     7     2     5    1
     8     2     3    1
     9     5     6    1
    10    70    69    2
    11     7     6   ar
    12     6     8   ar
    13    69    68    1
    14    84    85    1
    15    81    83   ar
    16    81    82   ar
    17     3     4    2
    18     3     9   am
    19     9    10    1
    20    67    68    1
    21    85    86    1
    22    85    88    1
    23    68    71    1
    24    86    87    2
    25    10    11    1
    26    10    13    1
    27    88    89    1
    28    74    73   ar
    29    11    12    2
    30    75    73   ar
    31    71    72    1
    32    15    14    2
    33    73    72    1
    34    89    90   ar
    35    89    91   ar
    36    13    14    1
    37    14    16   am
    38    99    98    2
    39    17    18    1
    40    23    22    1
    41    21    18    1
    42    21    22    1
    43    18    19    1
    44    98    97    1
    45    98   100   am
    46    96    97    1
    47    96    93    1
    48    94    95    2
    49    94    93    1
    50    24    22    1
    51    92    93    1
    52    49    48    2
    53    19    20    2
    54    48    47    1
    55    50    51    1
    56    50    47    1
    57    53    51   ar
    58    53    55   ar
    59    51    52   ar
    60    47    46    1
    61    33    31   ar
    62    33    35   ar
    63    31    30   ar
    64    55    56   ar
    65    52    54   ar
    66    36    35    1
    67    56    54   ar
    68    56    57    1
    69    25    26    1
    70    35    34   ar
    71    30    29    1
    72    30    32   ar
    73    29    26    1
    74    26    27    1
    75    58    59    1
    76    34    32   ar
    77    27    28    2
    78    59    62    1
    79    59    60    1
    80    62    63    1
    81    64    63    1
    82    64    65    1
    83    60    61    2
    84    66    65    1
    85    45    43   ar
    86    44    43   ar
    87    43    42    1
    88    37    38    1
    89    38    39    1
    90    38    41    1
    91    42    41    1
    92    40    39    2
