@<TRIPOS>MOLECULE
tmp/1gymA00.pdb
 133 126 0 0 0
SMALL
GASTEIGER

@<TRIPOS>ATOM
      1  N         17.8590   37.2140  100.7040 N.3    32  HIS32      -0.1226
      2  CA        18.0670   35.7610  100.6780 C.3    32  HIS32       0.1752
      3  C         17.0980   35.1200   99.6700 C.2    32  HIS32       0.2596
      4  O         15.9200   35.4910   99.6190 O.2    32  HIS32      -0.2718
      5  CB        17.8490   35.1920  102.1110 C.3    32  HIS32       0.0759
      6  CG        17.7960   33.6910  102.1860 C.ar   32  HIS32       0.0818
      7  ND1       16.6450   32.9980  102.4770 N.ar   32  HIS32      -0.2268
      8  CD2       18.7470   32.7610  101.9500 C.ar   32  HIS32       0.1154
      9  CE1       16.8800   31.7060  102.4090 C.ar   32  HIS32       0.1986
     10  NE2       18.1500   31.5330  102.0850 N.ar   32  HIS32      -0.2212
     11  N         17.5720   34.1430   98.8930 N.am   33  ASP33      -0.1974
     12  CA        16.7010   33.4910   97.9060 C.3    33  ASP33       0.1709
     13  C         15.8940   34.5340   97.1240 C.2    33  ASP33       0.2293
     14  O         14.6700   34.3960   96.9320 O.2    33  ASP33      -0.2864
     15  CB        15.7550   32.5200   98.6180 C.3    33  ASP33       0.1436
     16  CG        16.3780   31.1740   98.8340 C.2    33  ASP33       0.3671
     17  OD1       17.0990   30.7060   97.9420 O.co2  33  ASP33      -0.2456
     18  OD2       16.1510   30.5870   99.8960 O.co2  33  ASP33      -0.2456
     19  N         20.4110   31.6500   92.8510 N.3    69  ARG69      -0.1245
     20  CA        20.5800   30.1950   92.8350 C.3    69  ARG69       0.1563
     21  C         20.1270   29.6810   91.4840 C.2    69  ARG69       0.2260
     22  O         18.9420   29.7230   91.1720 O.2    69  ARG69      -0.2867
     23  CB        19.7070   29.5800   93.9260 C.3    69  ARG69       0.0307
     24  CG        19.8910   30.2270   95.2630 C.3    69  ARG69       0.0489
     25  CD        21.2550   29.9340   95.8940 C.3    69  ARG69       0.2205
     26  NE        21.2770   30.4570   97.2600 N.pl3  69  ARG69      -0.0865
     27  CZ        20.8000   29.8180   98.3430 C.cat  69  ARG69       0.5346
     28  NH1       20.2790   28.5970   98.2590 N.pl3  69  ARG69       0.1354
     29  NH2       20.7410   30.4500   99.5170 N.pl3  69  ARG69       0.1354
     30  N         14.7770   26.8640   93.6900 N.3    82  HIS82      -0.1241
     31  CA        14.7960   26.7330   95.1440 C.3    82  HIS82       0.1621
     32  C         14.8240   25.2130   95.2670 C.2    82  HIS82       0.2264
     33  O         13.8030   24.5450   95.1090 O.2    82  HIS82      -0.2867
     34  CB        13.5790   27.2840   95.8990 C.3    82  HIS82       0.0745
     35  CG        13.6360   26.9630   97.3750 C.ar   82  HIS82       0.0817
     36  ND1       14.6620   27.4040   98.1940 N.ar   82  HIS82      -0.2268
     37  CD2       12.9020   26.1130   98.1330 C.ar   82  HIS82       0.1154
     38  CE1       14.5600   26.8330   99.3760 C.ar   82  HIS82       0.1986
     39  NE2       13.5010   26.0450   99.3680 N.ar   82  HIS82      -0.2212
     40  N         25.1830   30.6630   92.9280 N.3   115  LYS115     -0.1245
     41  CA        25.3470   29.3210   93.4150 C.3   115  LYS115      0.1561
     42  C         24.6070   28.3510   92.4990 C.2   115  LYS115      0.2260
     43  O         23.5410   28.6620   91.9800 O.2   115  LYS115     -0.2867
     44  CB        24.7130   29.2110   94.8310 C.3   115  LYS115      0.0271
     45  CG        24.9500   27.8130   95.4740 C.3   115  LYS115      0.0035
     46  CD        24.6920   27.6950   97.0170 C.3   115  LYS115      0.0206
     47  CE        24.8670   26.2390   97.4960 C.3   115  LYS115      0.1093
     48  NZ        23.5570   25.4700   97.4650 N.3   115  LYS115     -0.1314
     49  N         22.3190   25.6490   92.4210 N.3   117  GLU117     -0.1245
     50  CA        21.2930   25.1560   93.3250 C.3   117  GLU117      0.1567
     51  C         20.7570   23.7370   93.1110 C.2   117  GLU117      0.2260
     52  O         20.0780   23.1660   93.9880 O.2   117  GLU117     -0.2867
     53  CB        20.1080   26.1190   93.1950 C.3   117  GLU117      0.0388
     54  CG        18.9420   25.8230   94.0640 C.3   117  GLU117      0.1160
     55  CD        19.2490   26.0870   95.5140 C.2   117  GLU117      0.3649
     56  OE1       20.3300   26.6270   95.8400 O.co2 117  GLU117     -0.2457
     57  OE2       18.3980   25.7580   96.3380 O.co2 117  GLU117     -0.2457
     58  N         29.9160   31.3660   94.3620 N.3   163  ARG163     -0.1245
     59  CA        29.5480   30.2710   95.2630 C.3   163  ARG163      0.1563
     60  C         29.4710   29.0040   94.4100 C.2   163  ARG163      0.2260
     61  O         28.5800   28.1690   94.5700 O.2   163  ARG163     -0.2867
     62  CB        28.2150   30.5250   96.0050 C.3   163  ARG163      0.0307
     63  CG        28.3170   31.5250   97.1850 C.3   163  ARG163      0.0489
     64  CD        27.0800   31.5630   98.0640 C.3   163  ARG163      0.2205
     65  NE        26.8840   30.2990   98.7680 N.pl3 163  ARG163     -0.0865
     66  CZ        25.7900   30.0140   99.4700 C.cat 163  ARG163      0.5346
     67  NH1       24.8230   30.9040   99.5790 N.pl3 163  ARG163      0.1354
     68  NH2       25.6070   28.8010   99.9650 N.pl3 163  ARG163      0.1354
     69  N         32.7310   26.9440  102.1760 N.3   178  TRP178     -0.1241
     70  CA        31.5040   27.3870  102.7890 C.3   178  TRP178      0.1605
     71  C         30.8030   26.1490  103.3470 C.2   178  TRP178      0.2264
     72  O         30.0260   25.4920  102.6270 O.2   178  TRP178     -0.2867
     73  CB        30.6250   28.0910  101.7260 C.3   178  TRP178      0.0550
     74  CG        29.4040   28.8050  102.2450 C.ar  178  TRP178      0.0003
     75  CD1       28.4290   28.2890  103.0490 C.ar  178  TRP178      0.0946
     76  CD2       29.0270   30.1650  101.9710 C.ar  178  TRP178      0.0152
     77  NE1       27.4720   29.2430  103.2910 N.ar  178  TRP178     -0.2442
     78  CE2       27.8140   30.4030  102.6380 C.ar  178  TRP178      0.0810
     79  CE3       29.5940   31.2050  101.2190 C.ar  178  TRP178      0.0012
     80  CZ2       27.1570   31.6470  102.5870 C.ar  178  TRP178      0.0191
     81  CZ3       28.9390   32.4270  101.1640 C.ar  178  TRP178      0.0001
     82  CH2       27.7320   32.6340  101.8440 C.ar  178  TRP178      0.0015
     83  N         28.4300   23.6960  105.7500 N.3   180  ASP180     -0.1239
     84  CA        27.0120   23.6930  105.9680 C.3   180  ASP180      0.1674
     85  C         26.5080   24.0460  107.3690 C.2   180  ASP180      0.2266
     86  O         26.9680   23.5240  108.3750 O.2   180  ASP180     -0.2867
     87  CB        26.4700   22.3330  105.5460 C.3   180  ASP180      0.1410
     88  CG        24.9730   22.3090  105.4400 C.2   180  ASP180      0.3668
     89  OD1       24.4100   23.1210  104.6870 O.co2 180  ASP180     -0.2456
     90  OD2       24.3580   21.4610  106.0960 O.co2 180  ASP180     -0.2456
     91  N         25.6550   31.5160  108.7200 N.3   198  ASP198     -0.1239
     92  CA        24.6540   30.9230  107.8430 C.3   198  ASP198      0.1674
     93  C         24.0660   29.6430  108.4930 C.2   198  ASP198      0.2266
     94  O         24.1510   28.5210  107.9350 O.2   198  ASP198     -0.2867
     95  CB        25.3040   30.6390  106.4560 C.3   198  ASP198      0.1410
     96  CG        24.2900   30.1640  105.4020 C.2   198  ASP198      0.3668
     97  OD1       23.1080   30.5580  105.4250 O.co2 198  ASP198     -0.2456
     98  OD2       24.6770   29.3470  104.5520 O.co2 198  ASP198     -0.2456
     99  N         21.2180   28.1690  108.8390 N.3   200  TYR200     -0.1241
    100  CA        19.8900   28.2120  108.2370 C.3   200  TYR200      0.1605
    101  C         18.9430   27.1990  108.8110 C.2   200  TYR200      0.2264
    102  O         17.7140   27.3470  108.7090 O.2   200  TYR200     -0.2867
    103  CB        19.9760   28.0310  106.7040 C.3   200  TYR200      0.0534
    104  CG        20.5500   26.7180  106.2680 C.ar  200  TYR200     -0.0201
    105  CD1       19.7460   25.5930  106.1600 C.ar  200  TYR200     -0.0009
    106  CD2       21.8920   26.5980  105.9660 C.ar  200  TYR200     -0.0009
    107  CE1       20.2640   24.3630  105.7570 C.ar  200  TYR200      0.0417
    108  CE2       22.4300   25.3780  105.5450 C.ar  200  TYR200      0.0417
    109  CZ        21.6020   24.2560  105.4410 C.ar  200  TYR200      0.1957
    110  OH        22.1040   23.0420  104.9650 O.3   200  TYR200     -0.2866
    111  N         23.4800   36.2350  107.6420 N.3   232  PHE232     -0.1241
    112  CA        22.1400   35.8790  107.1800 C.3   232  PHE232      0.1605
    113  C         21.1480   35.8540  108.3300 C.2   232  PHE232      0.2264
    114  O         21.2710   35.0290  109.2310 O.2   232  PHE232     -0.2867
    115  CB        22.1430   34.4610  106.5550 C.3   232  PHE232      0.0534
    116  CG        22.8110   34.3590  105.1930 C.ar  232  PHE232     -0.0203
    117  CD1       24.1900   34.2630  105.0800 C.ar  232  PHE232     -0.0042
    118  CD2       22.0350   34.3220  104.0220 C.ar  232  PHE232     -0.0042
    119  CE1       24.7970   34.1300  103.8200 C.ar  232  PHE232     -0.0003
    120  CE2       22.6250   34.1900  102.7630 C.ar  232  PHE232     -0.0003
    121  CZ        24.0030   34.0930  102.6580 C.ar  232  PHE232     -0.0000
    122  N         18.1540   35.0530  107.7620 N.3   234  SER234     -0.1217
    123  CA        17.1580   34.1180  107.2760 C.3   234  SER234      0.1889
    124  C         17.2390   32.7570  108.0060 C.2   234  SER234      0.2288
    125  O         18.3200   32.2490  108.3540 O.2   234  SER234     -0.2866
    126  CB        17.3060   33.9720  105.7430 C.3   234  SER234      0.2089
    127  OG        18.6590   33.7540  105.3550 O.3   234  SER234     -0.2183
    128  N         15.1910   28.8160  107.8900 N.3   236  SER236     -0.1217
    129  CA        14.1850   27.9820  107.2370 C.3   236  SER236      0.1889
    130  C         13.6640   26.9450  108.2210 C.2   236  SER236      0.2288
    131  O         14.3730   26.5720  109.1650 O.2   236  SER236     -0.2866
    132  CB        14.8290   27.2280  106.0870 C.3   236  SER236      0.2089
    133  OG        15.9090   26.4370  106.5570 O.3   236  SER236     -0.2183
@<TRIPOS>BOND
     1    22    21    2
     2    21    20    1
     3    43    42    2
     4    49    50    1
     5    42    41    1
     6    20    19    1
     7    20    23    1
     8    40    41    1
     9    51    50    1
    10    51    52    2
    11    53    50    1
    12    53    54    1
    13    41    44    1
    14    30    31    1
    15    23    24    1
    16    54    55    1
    17    58    59    1
    18    60    61    2
    19    60    59    1
    20    44    45    1
    21    33    32    2
    22    31    32    1
    23    31    34    1
    24    59    62    1
    25    24    25    1
    26    45    46    1
    27    55    56   ar
    28    55    57   ar
    29    25    26    1
    30    34    35    1
    31    62    63    1
    32    14    13    2
    33    46    47    1
    34    13    12    1
    35    63    64    1
    36    26    27    2
    37    35    37   ar
    38    35    36   ar
    39    48    47    1
    40    12    15    1
    41    12    11    1
    42    17    16   ar
    43    64    65    1
    44    37    39   ar
    45    36    38   ar
    46    28    27    1
    47    27    29    1
    48    15    16    1
    49    65    66    2
    50    16    18   ar
    51    11     3   am
    52    39    38   ar
    53    66    67    1
    54    66    68    1
    55     4     3    2
    56     3     2    1
    57     2     1    1
    58     2     5    1
    59    81    79   ar
    60    81    82   ar
    61    79    76   ar
    62    73    74    1
    63    73    70    1
    64    82    80   ar
    65     8    10   ar
    66     8     6   ar
    67    76    74   ar
    68    76    78   ar
    69    10     9   ar
    70     5     6    1
    71    69    70    1
    72     6     7   ar
    73    74    75   ar
    74     9     7   ar
    75    80    78   ar
    76    72    71    2
    77    78    77   ar
    78   121   120   ar
    79   121   119   ar
    80   120   118   ar
    81    70    71    1
    82    75    77   ar
    83   119   117   ar
    84   118   116   ar
    85    98    96   ar
    86    89    88   ar
    87   110   109    1
    88   117   116   ar
    89   116   115    1
    90   127   126    1
    91    96    97   ar
    92    96    95    1
    93    88    87    1
    94    88    90   ar
    95   109   108   ar
    96   109   107   ar
    97   108   106   ar
    98    87    84    1
    99   126   123    1
   100    83    84    1
   101   107   105   ar
   102   106   104   ar
   103    84    85    1
   104   132   133    1
   105   132   129    1
   106   105   104   ar
   107   104   103    1
   108    95    92    1
   109   115   112    1
   110   103   100    1
   111   112   111    1
   112   112   113    1
   113   129   128    1
   114   129   130    1
   115   123   122    1
   116   123   124    1
   117    85    86    2
   118    92    93    1
   119    92    91    1
   120    94    93    2
   121   124   125    2
   122   130   131    2
   123   100   101    1
   124   100    99    1
   125   113   114    2
   126   102   101    2
