@<TRIPOS>MOLECULE
tmp/1gyoB02.pdb
 154 151 0 0 0
SMALL
GASTEIGER

@<TRIPOS>ATOM
      1  N         25.5050    1.7220   -0.3570 N.3    39  CYS39      -0.1221
      2  CA        25.7700    0.5190   -1.1340 C.3    39  CYS39       0.1808
      3  C         24.5860    0.1310   -1.9750 C.2    39  CYS39       0.2601
      4  O         24.7150   -0.0480   -3.2130 O.2    39  CYS39      -0.2717
      5  CB        26.1160   -0.6550   -0.2010 C.3    39  CYS39       0.0970
      6  SG        27.5790   -0.2840    0.7920 S.3    39  CYS39      -0.0800
      7  N         23.4100    0.0010   -1.3480 N.am   40  HIS40      -0.1961
      8  CA        22.1750   -0.2980   -2.0320 C.3    40  HIS40       0.1787
      9  C         21.6350    0.9860   -2.6540 C.2    40  HIS40       0.2620
     10  O         20.6220    1.5600   -2.1970 O.2    40  HIS40      -0.2715
     11  CB        21.1710   -0.8870   -1.0370 C.3    40  HIS40       0.0785
     12  CG        21.6170   -2.1640   -0.4020 C.ar   40  HIS40       0.0821
     13  ND1       21.5810   -3.3820   -1.0530 N.ar   40  HIS40      -0.2267
     14  CD2       22.0770   -2.4450    0.8300 C.ar   40  HIS40       0.1154
     15  CE1       22.0010   -4.3120   -0.2130 C.ar   40  HIS40       0.1986
     16  NE2       22.3180   -3.7920    0.9500 N.ar   40  HIS40      -0.2212
     17  N         22.3390    1.4400   -3.6930 N.am   41  HIS41      -0.1959
     18  CA        22.1310    2.7840   -4.1850 C.3    41  HIS41       0.1787
     19  C         20.8090    2.9910   -4.9080 C.2    41  HIS41       0.2620
     20  O         20.4370    4.1350   -5.1820 O.2    41  HIS41      -0.2715
     21  CB        23.2820    3.1840   -5.1260 C.3    41  HIS41       0.0785
     22  CG        23.3160    2.4110   -6.3950 C.ar   41  HIS41       0.0821
     23  ND1       22.7400    2.9130   -7.5200 N.ar   41  HIS41      -0.2267
     24  CD2       23.8040    1.2020   -6.7390 C.ar   41  HIS41       0.1154
     25  CE1       22.8960    2.0260   -8.5010 C.ar   41  HIS41       0.1986
     26  NE2       23.5290    0.9660   -8.0850 N.ar   41  HIS41      -0.2212
     27  N         20.1290    1.9180   -5.2620 N.am   42  MET42      -0.1977
     28  CA        18.8080    2.0250   -5.8960 C.3    42  MET42       0.1605
     29  C         17.6620    1.9940   -4.8710 C.2    42  MET42       0.2287
     30  O         16.4930    2.0700   -5.2620 O.2    42  MET42      -0.2864
     31  CB        18.6130    0.8830   -6.9010 C.3    42  MET42       0.0413
     32  CG        19.6290    0.9150   -8.0430 C.3    42  MET42       0.0598
     33  SD        19.4030    2.3000   -9.1460 S.3    42  MET42      -0.1393
     34  CE        18.0020    1.6650  -10.1230 C.3    42  MET42       0.0692
     35  N         17.2990   -6.7290   -3.7250 N.3    50  GLN50      -0.1231
     36  CA        17.7390   -7.6430   -4.7630 C.3    50  GLN50       0.1698
     37  C         19.2210   -7.9860   -4.5660 C.2    50  GLN50       0.2592
     38  O         19.8710   -7.3320   -3.7720 O.2    50  GLN50      -0.2718
     39  CB        17.5760   -6.9240   -6.1270 C.3    50  GLN50       0.0381
     40  CG        16.1220   -6.7930   -6.5050 C.3    50  GLN50       0.0905
     41  CD        15.4690   -5.6070   -5.8600 C.2    50  GLN50       0.2608
     42  OE1       16.0390   -4.5130   -5.8490 O.2    50  GLN50      -0.2717
     43  NE2       14.2630   -5.8870   -5.3880 N.am   50  GLN50      -0.0878
     44  N         19.7050   -8.9290   -5.3440 N.am   51  LYS51      -0.1966
     45  CA        21.1370   -9.1100   -5.4790 C.3    51  LYS51       0.1728
     46  C         21.6500   -7.9940   -6.3810 C.2    51  LYS51       0.2616
     47  O         20.9500   -7.5430   -7.3150 O.2    51  LYS51      -0.2715
     48  CB        21.4490  -10.4490   -6.1490 C.3    51  LYS51       0.0311
     49  CG        20.9850  -11.7340   -5.5020 C.3    51  LYS51       0.0038
     50  CD        21.7330  -12.0590   -4.2450 C.3    51  LYS51       0.0206
     51  CE        21.1510  -13.3420   -3.6680 C.3    51  LYS51       0.1093
     52  NZ        21.8060  -13.5720   -2.3690 N.3    51  LYS51      -0.1314
     53  N         22.8750   -7.5240   -6.1430 N.am   52  CYS52      -0.1968
     54  CA        23.4180   -6.5100   -7.0440 C.3    52  CYS52       0.1712
     55  C         23.4160   -7.0010   -8.4920 C.2    52  CYS52       0.2296
     56  O         23.0970   -6.2190   -9.3920 O.2    52  CYS52      -0.2864
     57  CB        24.8300   -6.0890   -6.5880 C.3    52  CYS52       0.0983
     58  SG        25.0560   -5.6770   -4.8780 S.3    52  CYS52      -0.0798
     59  N         20.8860   -6.6600  -11.4910 N.3    55  CYS55      -0.1221
     60  CA        21.0870   -5.5940  -12.4520 C.3    55  CYS55       0.1808
     61  C         22.4950   -5.6210  -13.0510 C.2    55  CYS55       0.2601
     62  O         22.6730   -5.3680  -14.2430 O.2    55  CYS55      -0.2717
     63  CB        20.8290   -4.2390  -11.8240 C.3    55  CYS55       0.0970
     64  SG        19.1240   -4.1380  -11.2380 S.3    55  CYS55      -0.0800
     65  N         23.4980   -5.8460  -12.2120 N.am   56  HIS56      -0.1975
     66  CA        24.9130   -5.8400  -12.6310 C.3    56  HIS56       0.1656
     67  C         25.2530   -7.2160  -13.1820 C.2    56  HIS56       0.2291
     68  O         25.8750   -8.0210  -12.5190 O.2    56  HIS56      -0.2864
     69  CB        25.7450   -5.4380  -11.4280 C.3    56  HIS56       0.0771
     70  CG        25.5990   -4.0010  -11.0830 C.ar   56  HIS56       0.0820
     71  ND1       26.3310   -3.0040  -11.7070 N.ar   56  HIS56      -0.2267
     72  CD2       24.7680   -3.3420  -10.2250 C.ar   56  HIS56       0.1154
     73  CE1       25.9530   -1.8140  -11.2120 C.ar   56  HIS56       0.1986
     74  NE2       24.9950   -1.9680  -10.2920 N.ar   56  HIS56      -0.2212
     75  N         29.5160    0.5080  -16.6310 N.3    65  GLU65      -0.1231
     76  CA        29.0740    0.9570  -15.3180 C.3    65  GLU65       0.1699
     77  C         27.9550    0.0900  -14.7530 C.2    65  GLU65       0.2592
     78  O         27.8850   -0.0800  -13.5240 O.2    65  GLU65      -0.2718
     79  CB        28.6320    2.4180  -15.3920 C.3    65  GLU65       0.0402
     80  CG        29.7650    3.3600  -15.7720 C.3    65  GLU65       0.1161
     81  CD        30.0020    3.6260  -17.2390 C.2    65  GLU65       0.3649
     82  OE1       29.4950    2.8880  -18.1370 O.co2  65  GLU65      -0.2457
     83  OE2       30.7170    4.6010  -17.5360 O.co2  65  GLU65      -0.2457
     84  N         27.0960   -0.4910  -15.5860 N.am   66  ARG66      -0.1980
     85  CA        25.9890   -1.3380  -15.1610 C.3    66  ARG66       0.1597
     86  C         26.3620   -2.8180  -15.1940 C.2    66  ARG66       0.2287
     87  O         25.4630   -3.6360  -15.0140 O.2    66  ARG66      -0.2864
     88  CB        24.7120   -1.1250  -15.9730 C.3    66  ARG66       0.0334
     89  CG        24.1290    0.2630  -15.8820 C.3    66  ARG66       0.0492
     90  CD        22.8420    0.2960  -16.7330 C.3    66  ARG66       0.2205
     91  NE        22.2260    1.6110  -16.6200 N.pl3  66  ARG66      -0.0865
     92  CZ        20.9470    1.8140  -16.9420 C.cat  66  ARG66       0.5346
     93  NH1       20.2430    0.7790  -17.3890 N.pl3  66  ARG66       0.1354
     94  NH2       20.4230    3.0220  -16.8110 N.pl3  66  ARG66       0.1354
     95  N         32.0820   -3.5910  -12.3880 N.3    70  LYS70      -0.1231
     96  CA        32.1420   -2.2320  -11.8490 C.3    70  LYS70       0.1693
     97  C         31.3280   -2.0780  -10.5670 C.2    70  LYS70       0.2592
     98  O         31.6110   -1.1480   -9.8060 O.2    70  LYS70      -0.2718
     99  CB        31.6620   -1.2310  -12.9000 C.3    70  LYS70       0.0285
    100  CG        32.7250   -0.9090  -13.9420 C.3    70  LYS70       0.0035
    101  CD        33.6090    0.2360  -13.5450 C.3    70  LYS70       0.0206
    102  CE        34.5290    0.6360  -14.6880 C.3    70  LYS70       0.1093
    103  NZ        34.1530    1.7540  -15.6100 N.3    70  LYS70      -0.1314
    104  N         30.3460   -2.9510  -10.2900 N.am   71  ALA71      -0.1966
    105  CA        29.6220   -2.8650   -9.0220 C.3    71  ALA71       0.1728
    106  C         30.5560   -2.8720   -7.8340 C.2    71  ALA71       0.2616
    107  O         30.2980   -2.1980   -6.8350 O.2    71  ALA71      -0.2715
    108  CB        28.6660   -4.0470   -8.9030 C.3    71  ALA71       0.0334
    109  N         31.6600   -3.6460   -7.9440 N.am   72  TRP72      -0.1974
    110  CA        32.5400   -3.8930   -6.7990 C.3    72  TRP72       0.1640
    111  C         33.8370   -3.1150   -6.8890 C.2    72  TRP72       0.2290
    112  O         34.5110   -2.9290   -5.8710 O.2    72  TRP72      -0.2864
    113  CB        32.8650   -5.4010   -6.6820 C.3    72  TRP72       0.0576
    114  CG        31.7160   -6.2710   -7.0840 C.ar   72  TRP72       0.0006
    115  CD1       31.6360   -6.9740   -8.2490 C.ar   72  TRP72       0.0946
    116  CD2       30.4800   -6.5110   -6.3990 C.ar   72  TRP72       0.0152
    117  NE1       30.4270   -7.6560   -8.3440 N.ar   72  TRP72      -0.2442
    118  CE2       29.7090   -7.3930   -7.1970 C.ar   72  TRP72       0.0810
    119  CE3       29.9580   -6.0900   -5.1600 C.ar   72  TRP72       0.0012
    120  CZ2       28.4630   -7.8250   -6.7850 C.ar   72  TRP72       0.0191
    121  CZ3       28.7180   -6.5330   -4.7830 C.ar   72  TRP72       0.0001
    122  CH2       28.0050   -7.3910   -5.5950 C.ar   72  TRP72       0.0015
    123  N         34.5290   -0.1440   -9.3240 N.3    74  SER74      -0.1217
    124  CA        34.5840    1.2000   -9.8810 C.3    74  SER74       0.1889
    125  C         35.2480    2.2140   -8.9860 C.2    74  SER74       0.2288
    126  O         35.2820    2.1030   -7.7440 O.2    74  SER74      -0.2866
    127  CB        33.1230    1.6380  -10.0550 C.3    74  SER74       0.2089
    128  OG        33.0760    2.9180  -10.6240 O.3    74  SER74      -0.2183
    129  N         33.6920    4.8500   -8.5630 N.3    76  SER76      -0.1217
    130  CA        32.5370    5.3030   -7.7930 C.3    76  SER76       0.1889
    131  C         32.5940    4.9090   -6.3350 C.2    76  SER76       0.2288
    132  O         32.9240    3.7580   -6.0360 O.2    76  SER76      -0.2866
    133  CB        31.2820    4.6670   -8.4080 C.3    76  SER76       0.2089
    134  OG        30.1330    4.9160   -7.6250 O.3    76  SER76      -0.2183
    135  N         30.1920    4.1850   -4.5950 N.3    78  ILE78      -0.1231
    136  CA        29.2190    3.1160   -4.3170 C.3    78  ILE78       0.1692
    137  C         29.8920    1.7680   -4.2640 C.2    78  ILE78       0.2593
    138  O         29.3850    0.8330   -3.6210 O.2    78  ILE78      -0.2718
    139  CB        28.0980    3.1430   -5.3490 C.3    78  ILE78       0.0266
    140  CG1       27.3740    4.4850   -5.3540 C.3    78  ILE78       0.0019
    141  CG2       27.0970    1.9910   -5.1690 C.3    78  ILE78       0.0020
    142  CD1       26.4800    4.7330   -6.5730 C.3    78  ILE78       0.0001
    143  N         31.0260    1.5980   -4.9710 N.am   79  SER79      -0.1938
    144  CA        31.6400    0.2960   -5.0760 C.3    79  SER79       0.2055
    145  C         32.5160    0.0200   -3.8590 C.2    79  SER79       0.2643
    146  O         32.9990    0.9260   -3.2000 O.2    79  SER79      -0.2714
    147  CB        32.4870    0.1820   -6.3470 C.3    79  SER79       0.2130
    148  OG        33.8170    0.6020   -6.1320 O.3    79  SER79      -0.2179
    149  N         32.7410   -1.2550   -3.5970 N.am   80  CYS80      -0.1967
    150  CA        33.5790   -1.7050   -2.4840 C.3    80  CYS80       0.1712
    151  C         34.9180   -0.9980   -2.5320 C.2    80  CYS80       0.2296
    152  O         35.3940   -0.3530   -1.5940 O.2    80  CYS80      -0.2864
    153  CB        33.7790   -3.2030   -2.5220 C.3    80  CYS80       0.0983
    154  SG        32.3620   -4.2460   -2.8500 S.3    80  CYS80      -0.0798
@<TRIPOS>BOND
     1    82    81   ar
     2    83    81   ar
     3    93    92    1
     4    81    80    1
     5    92    94    1
     6    92    91    2
     7    90    91    1
     8    90    89    1
     9    75    76    1
    10    88    89    1
    11    88    85    1
    12    80    79    1
    13   103   102    1
    14    84    85    1
    15    84    77   am
    16    79    76    1
    17    76    77    1
    18    86    85    1
    19    86    87    2
    20    77    78    2
    21   102   101    1
    22    62    61    2
    23   100   101    1
    24   100    99    1
    25    67    66    1
    26    67    68    2
    27    61    60    1
    28    61    65   am
    29    99    96    1
    30    66    65    1
    31    66    69    1
    32    60    63    1
    33    60    59    1
    34    95    96    1
    35    96    97    1
    36    63    64    1
    37    71    73   ar
    38    71    70   ar
    39    69    70    1
    40    73    74   ar
    41    70    72   ar
    42   128   127    1
    43    97   104   am
    44    97    98    2
    45    74    72   ar
    46   104   105    1
    47    34    33    1
    48   127   124    1
    49   124   123    1
    50   124   125    1
    51    56    55    2
    52    33    32    1
    53   105   108    1
    54   105   106    1
    55   125   126    2
    56   129   130    1
    57    25    26   ar
    58    25    23   ar
    59    55    54    1
    60   133   130    1
    61   133   134    1
    62   117   115   ar
    63   117   118   ar
    64   115   114   ar
    65    26    24   ar
    66    32    31    1
    67   109   106   am
    68   109   110    1
    69   106   107    2
    70   130   131    1
    71    23    22   ar
    72    47    46    2
    73   118   120   ar
    74   118   116   ar
    75   114   113    1
    76   114   116   ar
    77    54    57    1
    78    54    53    1
    79    31    28    1
    80   111   110    1
    81   111   112    2
    82   110   113    1
    83   120   122   ar
    84    24    22   ar
    85    57    58    1
    86   142   140    1
    87    40    39    1
    88    40    41    1
    89   116   119   ar
    90    22    21    1
    91    46    53   am
    92    46    45    1
    93   147   148    1
    94   147   144    1
    95   131   132    2
    96    48    49    1
    97    48    45    1
    98    39    36    1
    99    28    27    1
   100    28    29    1
   101    41    42    2
   102    41    43   am
   103   122   121   ar
   104    49    50    1
   105    45    44    1
   106   140   139    1
   107   139   141    1
   108   139   136    1
   109    44    37   am
   110    30    29    2
   111    27    19   am
   112    20    19    2
   113   119   121   ar
   114    21    18    1
   115   144   143    1
   116   144   145    1
   117   143   137   am
   118    19    18    1
   119    36    37    1
   120    36    35    1
   121   135   136    1
   122    37    38    2
   123   136   137    1
   124   137   138    2
   125    50    51    1
   126    18    17    1
   127   145   149   am
   128   145   146    2
   129    17     9   am
   130    51    52    1
   131   149   150    1
   132     4     3    2
   133   154   153    1
   134     9    10    2
   135     9     8    1
   136   151   150    1
   137   151   152    2
   138   153   150    1
   139     8     7    1
   140     8    11    1
   141     3     7   am
   142     3     2    1
   143     2     1    1
   144     2     5    1
   145    13    12   ar
   146    13    15   ar
   147    11    12    1
   148    12    14   ar
   149    15    16   ar
   150     5     6    1
   151    14    16   ar
