@<TRIPOS>MOLECULE
tmp/1gyoB03.pdb
 188 182 0 0 0
SMALL
GASTEIGER

@<TRIPOS>ATOM
      1  N         29.1690  -13.0090   -1.3000 N.3     9  ILE9       -0.1245
      2  CA        28.9120  -12.4580   -2.6050 C.3     9  ILE9        0.1561
      3  C         29.6160  -13.3670   -3.6170 C.2     9  ILE9        0.2260
      4  O         30.8130  -13.6410   -3.4440 O.2     9  ILE9       -0.2867
      5  CB        29.4100  -11.0050   -2.6980 C.3     9  ILE9        0.0252
      6  CG1       28.9830  -10.1420   -1.5290 C.3     9  ILE9        0.0019
      7  CG2       29.0080  -10.3940   -4.0640 C.3     9  ILE9        0.0019
      8  CD1       29.6370   -8.7870   -1.4750 C.3     9  ILE9        0.0001
      9  N         33.3760  -13.4540   -2.0570 N.3    24  VAL24      -0.1231
     10  CA        33.8220  -12.4020   -1.1620 C.3    24  VAL24       0.1692
     11  C         32.8240  -12.2850   -0.0170 C.2    24  VAL24       0.2592
     12  O         31.6240  -12.2070   -0.2600 O.2    24  VAL24      -0.2718
     13  CB        33.9400  -11.0550   -1.8920 C.3    24  VAL24       0.0266
     14  CG1       34.2360   -9.9110   -0.9180 C.3    24  VAL24       0.0020
     15  CG2       35.0370  -11.1040   -2.9610 C.3    24  VAL24       0.0020
     16  N         33.3380  -12.2720    1.2010 N.am   25  GLU25      -0.1966
     17  CA        32.4730  -12.0510    2.3900 C.3    25  GLU25       0.1733
     18  C         32.4230  -10.5860    2.7020 C.2    25  GLU25       0.2616
     19  O         33.3910   -9.8220    2.5910 O.2    25  GLU25      -0.2715
     20  CB        32.9370  -12.8270    3.6100 C.3    25  GLU25       0.0429
     21  CG        31.8270  -13.1650    4.6240 C.3    25  GLU25       0.1163
     22  CD        32.3920  -14.0850    5.7070 C.2    25  GLU25       0.3649
     23  OE1       33.4110  -13.6700    6.3180 O.co2  25  GLU25      -0.2457
     24  OE2       31.8590  -15.1940    5.9610 O.co2  25  GLU25      -0.2457
     25  N         31.2160  -10.1390    3.0370 N.am   26  MET26      -0.1963
     26  CA        31.0270   -8.7880    3.5030 C.3    26  MET26       0.1736
     27  C         30.2030   -8.8320    4.7910 C.2    26  MET26       0.2617
     28  O         29.1980   -9.5800    4.8580 O.2    26  MET26      -0.2715
     29  CB        30.3140   -7.8920    2.4750 C.3    26  MET26       0.0427
     30  CG        30.3590   -6.4150    2.7810 C.3    26  MET26       0.0599
     31  SD        28.8880   -5.5500    2.2470 S.3    26  MET26      -0.1393
     32  CE        27.7390   -6.0960    3.4900 C.3    26  MET26       0.0692
     33  N         30.5950   -8.0550    5.7720 N.am   27  SER27      -0.1950
     34  CA        29.8450   -7.9650    7.0040 C.3    27  SER27       0.1924
     35  C         28.9950   -6.6900    7.0830 C.2    27  SER27       0.2314
     36  O         29.5110   -5.5600    7.0330 O.2    27  SER27      -0.2863
     37  CB        30.8200   -7.9560    8.1790 C.3    27  SER27       0.2116
     38  OG        30.1350   -7.6410    9.3800 O.3    27  SER27      -0.2180
     39  N         30.1890   -4.9050   10.3140 N.3    30  LYS30      -0.1231
     40  CA        31.3810   -4.0370   10.2390 C.3    30  LYS30       0.1693
     41  C         31.0570   -2.7230    9.5470 C.2    30  LYS30       0.2592
     42  O         31.7000   -1.7150    9.8150 O.2    30  LYS30      -0.2718
     43  CB        32.5200   -4.7370    9.5020 C.3    30  LYS30       0.0285
     44  CG        33.0850   -5.8930   10.2960 C.3    30  LYS30       0.0035
     45  CD        34.0310   -5.4520   11.4050 C.3    30  LYS30       0.0206
     46  CE        34.7030   -6.6540   12.0560 C.3    30  LYS30       0.1093
     47  NZ        35.5860   -6.2080   13.1810 N.3    30  LYS30      -0.1314
     48  N         30.0630   -2.7190    8.6660 N.am   31  HIS31      -0.1976
     49  CA        29.6180   -1.5290    7.9310 C.3    31  HIS31       0.1656
     50  C         28.4390   -0.8680    8.6140 C.2    31  HIS31       0.2291
     51  O         27.7070   -0.1290    7.9610 O.2    31  HIS31      -0.2864
     52  CB        29.2890   -1.9110    6.4900 C.3    31  HIS31       0.0771
     53  CG        30.4770   -2.2990    5.6730 C.ar   31  HIS31       0.0820
     54  ND1       30.9070   -3.5760    5.5240 N.ar   31  HIS31      -0.2267
     55  CD2       31.3350   -1.5700    4.9320 C.ar   31  HIS31       0.1154
     56  CE1       31.9560   -3.6410    4.7080 C.ar   31  HIS31       0.1986
     57  NE2       32.2560   -2.4150    4.3180 N.ar   31  HIS31      -0.2212
     58  N         28.1870    1.7460   10.2990 N.3    33  ASN33      -0.1225
     59  CA        28.2160    3.2000   10.2290 C.3    33  ASN33       0.1785
     60  C         28.0710    3.7150    8.8080 C.2    33  ASN33       0.2597
     61  O         28.2290    4.9240    8.5790 O.2    33  ASN33      -0.2718
     62  CB        29.5170    3.7400   10.8030 C.3    33  ASN33       0.1169
     63  CG        29.6610    3.4620   12.2810 C.2    33  ASN33       0.2627
     64  OD1       28.7140    3.6450   13.0420 O.2    33  ASN33      -0.2716
     65  ND2       30.8620    3.0350   12.6950 N.am   33  ASN33      -0.0877
     66  N         27.7820    2.8450    7.8540 N.am   34  VAL34      -0.1980
     67  CA        27.6140    3.2200    6.4650 C.3    34  VAL34       0.1595
     68  C         26.1120    3.1270    6.1400 C.2    34  VAL34       0.2287
     69  O         25.5000    2.0850    6.4050 O.2    34  VAL34      -0.2864
     70  CB        28.4360    2.3170    5.5270 C.3    34  VAL34       0.0276
     71  CG1       28.2390    2.6860    4.0750 C.3    34  VAL34       0.0022
     72  CG2       29.9310    2.3970    5.8220 C.3    34  VAL34       0.0022
     73  N         24.2020    3.8990    0.6840 N.3    38  SER38      -0.1202
     74  CA        25.5700    4.0800    0.2210 C.3    38  SER38       0.2020
     75  C         26.0180    2.8960   -0.6340 C.2    38  SER38       0.2619
     76  O         26.8630    3.1110   -1.5140 O.2    38  SER38      -0.2717
     77  CB        26.5540    4.2530    1.3890 C.3    38  SER38       0.2103
     78  OG        26.2410    5.4650    2.0880 O.3    38  SER38      -0.2182
     79  N         25.5050    1.7220   -0.3570 N.am   39  CYS39      -0.1969
     80  CA        25.7700    0.5190   -1.1340 C.3    39  CYS39       0.1712
     81  C         24.5860    0.1310   -1.9750 C.2    39  CYS39       0.2296
     82  O         24.7150   -0.0480   -3.2130 O.2    39  CYS39      -0.2864
     83  CB        26.1160   -0.6550   -0.2010 C.3    39  CYS39       0.0983
     84  SG        27.5790   -0.2840    0.7920 S.3    39  CYS39      -0.0798
     85  N         31.6600   -3.6460   -7.9440 N.3    72  TRP72      -0.1241
     86  CA        32.5400   -3.8930   -6.7990 C.3    72  TRP72       0.1605
     87  C         33.8370   -3.1150   -6.8890 C.2    72  TRP72       0.2264
     88  O         34.5110   -2.9290   -5.8710 O.2    72  TRP72      -0.2867
     89  CB        32.8650   -5.4010   -6.6820 C.3    72  TRP72       0.0550
     90  CG        31.7160   -6.2710   -7.0840 C.ar   72  TRP72       0.0003
     91  CD1       31.6360   -6.9740   -8.2490 C.ar   72  TRP72       0.0946
     92  CD2       30.4800   -6.5110   -6.3990 C.ar   72  TRP72       0.0152
     93  NE1       30.4270   -7.6560   -8.3440 N.ar   72  TRP72      -0.2442
     94  CE2       29.7090   -7.3930   -7.1970 C.ar   72  TRP72       0.0810
     95  CE3       29.9580   -6.0900   -5.1600 C.ar   72  TRP72       0.0012
     96  CZ2       28.4630   -7.8250   -6.7850 C.ar   72  TRP72       0.0191
     97  CZ3       28.7180   -6.5330   -4.7830 C.ar   72  TRP72       0.0001
     98  CH2       28.0050   -7.3910   -5.5950 C.ar   72  TRP72       0.0015
     99  N         32.2060    5.8330   -5.4630 N.3    77  GLU77      -0.1231
    100  CA        32.1640    5.5390   -4.0280 C.3    77  GLU77       0.1699
    101  C         31.0140    4.6000   -3.6230 C.2    77  GLU77       0.2592
    102  O         30.9550    4.2750   -2.4270 O.2    77  GLU77      -0.2718
    103  CB        32.1460    6.8470   -3.2480 C.3    77  GLU77       0.0402
    104  CG        33.5130    7.5880   -3.3990 C.3    77  GLU77       0.1161
    105  CD        33.6130    8.8530   -2.6110 C.2    77  GLU77       0.3649
    106  OE1       33.0020    8.9060   -1.5190 O.co2  77  GLU77      -0.2457
    107  OE2       34.3080    9.7910   -3.0710 O.co2  77  GLU77      -0.2457
    108  N         30.1920    4.1850   -4.5950 N.am   78  ILE78      -0.1966
    109  CA        29.2190    3.1160   -4.3170 C.3    78  ILE78       0.1727
    110  C         29.8920    1.7680   -4.2640 C.2    78  ILE78       0.2617
    111  O         29.3850    0.8330   -3.6210 O.2    78  ILE78      -0.2715
    112  CB        28.0980    3.1430   -5.3490 C.3    78  ILE78       0.0290
    113  CG1       27.3740    4.4850   -5.3540 C.3    78  ILE78       0.0022
    114  CG2       27.0970    1.9910   -5.1690 C.3    78  ILE78       0.0023
    115  CD1       26.4800    4.7330   -6.5730 C.3    78  ILE78       0.0001
    116  N         31.0260    1.5980   -4.9710 N.am   79  SER79      -0.1936
    117  CA        31.6400    0.2960   -5.0760 C.3    79  SER79       0.2055
    118  C         32.5160    0.0200   -3.8590 C.2    79  SER79       0.2643
    119  O         32.9990    0.9260   -3.2000 O.2    79  SER79      -0.2714
    120  CB        32.4870    0.1820   -6.3470 C.3    79  SER79       0.2130
    121  OG        33.8170    0.6020   -6.1320 O.3    79  SER79      -0.2179
    122  N         32.7410   -1.2550   -3.5970 N.am   80  CYS80      -0.1967
    123  CA        33.5790   -1.7050   -2.4840 C.3    80  CYS80       0.1712
    124  C         34.9180   -0.9980   -2.5320 C.2    80  CYS80       0.2296
    125  O         35.3940   -0.3530   -1.5940 O.2    80  CYS80      -0.2864
    126  CB        33.7790   -3.2030   -2.5220 C.3    80  CYS80       0.0983
    127  SG        32.3620   -4.2460   -2.8500 S.3    80  CYS80      -0.0798
    128  N         34.7790    3.1150   -2.5670 N.3    83  CYS83      -0.1221
    129  CA        34.6040    3.7700   -1.2670 C.3    83  CYS83       0.1808
    130  C         35.8960    3.6440   -0.4550 C.2    83  CYS83       0.2601
    131  O         36.3930    4.6150    0.1470 O.2    83  CYS83      -0.2717
    132  CB        33.4350    3.1700   -0.5160 C.3    83  CYS83       0.0970
    133  SG        33.3500    3.9580    1.1450 S.3    83  CYS83      -0.0800
    134  N         36.4580    2.4130   -0.3980 N.am   84  HIS84      -0.1975
    135  CA        37.6510    2.2360    0.4500 C.3    84  HIS84       0.1656
    136  C         38.7910    3.0990   -0.0420 C.2    84  HIS84       0.2291
    137  O         39.4720    3.7390    0.7580 O.2    84  HIS84      -0.2864
    138  CB        38.0480    0.7610    0.4550 C.3    84  HIS84       0.0771
    139  CG        37.0340   -0.1720    1.0760 C.ar   84  HIS84       0.0820
    140  ND1       37.1660   -1.5390    0.8690 N.ar   84  HIS84      -0.2267
    141  CD2       35.9320   -0.0660    1.8530 C.ar   84  HIS84       0.1154
    142  CE1       36.1860   -2.1770    1.4910 C.ar   84  HIS84       0.1986
    143  NE2       35.3950   -1.3210    2.0930 N.ar   84  HIS84      -0.2212
    144  N         38.0850    6.7320    1.0660 N.3    87  MET87      -0.1245
    145  CA        38.2660    6.9270    2.5100 C.3    87  MET87       0.1570
    146  C         39.7470    6.9490    2.8360 C.2    87  MET87       0.2261
    147  O         40.2500    7.6580    3.7170 O.2    87  MET87      -0.2867
    148  CB        37.5300    5.8190    3.3000 C.3    87  MET87       0.0387
    149  CG        36.0290    5.9460    3.1640 C.3    87  MET87       0.0595
    150  SD        35.0390    4.9050    4.2360 S.3    87  MET87      -0.1393
    151  CE        35.3330    5.7540    5.8210 C.3    87  MET87       0.0692
    152  N         39.5970    5.3500    8.5720 N.3    93  GLN93      -0.1231
    153  CA        39.5860    3.9060    8.7000 C.3    93  GLN93       0.1698
    154  C         38.5610    3.2760    7.7580 C.2    93  GLN93       0.2593
    155  O         37.3890    3.6680    7.7310 O.2    93  GLN93      -0.2718
    156  CB        39.2090    3.5420   10.1380 C.3    93  GLN93       0.0381
    157  CG        39.3020    2.0370   10.4130 C.3    93  GLN93       0.0905
    158  CD        40.4650    1.8480   11.3810 C.2    93  GLN93       0.2608
    159  OE1       41.5170    2.4640   11.1550 O.2    93  GLN93      -0.2717
    160  NE2       40.2080    1.0510   12.4050 N.am   93  GLN93      -0.0878
    161  N         39.0430    2.2980    7.0040 N.am   94  THR94      -0.1939
    162  CA        38.2070    1.7450    5.9680 C.3    94  THR94       0.2028
    163  C         38.6210    0.3360    5.6040 C.2    94  THR94       0.2643
    164  O         39.4130   -0.2660    6.3250 O.2    94  THR94      -0.2714
    165  CB        38.2790    2.6970    4.7620 C.3    94  THR94       0.1808
    166  OG1       37.2280    2.3570    3.8120 O.3    94  THR94      -0.2208
    167  CG2       39.6220    2.5810    4.0550 C.3    94  THR94       0.0379
    168  N         38.0760   -0.2080    4.5340 N.am   95  GLY95      -0.1940
    169  CA        38.3430   -1.5570    4.1300 C.3    95  GLY95       0.1998
    170  C         39.4660   -1.7080    3.1200 C.2    95  GLY95       0.2480
    171  O         40.1480   -0.7800    2.7830 O.2    95  GLY95      -0.2729
    172  N         39.6760   -2.9520    2.6760 N.am   96  PRO96      -0.2726
    173  CA        40.8420   -3.2180    1.8240 C.3    96  PRO96       0.1402
    174  C         40.7020   -2.7400    0.3930 C.2    96  PRO96       0.2269
    175  O         39.6150   -2.5600   -0.1650 O.2    96  PRO96      -0.2865
    176  CB        40.9150   -4.7280    1.8910 C.3    96  PRO96       0.0296
    177  CG        39.6350   -5.2670    2.4090 C.3    96  PRO96       0.0237
    178  CD        38.9110   -4.1450    3.0310 C.3    96  PRO96       0.0939
    179  N         42.2360   -9.1600    1.6910 N.3   102  GLY102     -0.1210
    180  CA        40.9170   -9.0280    2.3630 C.3   102  GLY102      0.1956
    181  C         39.8340   -9.6760    1.5320 C.2   102  GLY102      0.2612
    182  O         39.4360  -10.8220    1.7670 O.2   102  GLY102     -0.2717
    183  N         39.3310   -8.9640    0.5180 N.am  103  CYS103     -0.1970
    184  CA        38.1460   -9.4360   -0.1660 C.3   103  CYS103      0.1712
    185  C         38.3920  -10.7840   -0.8670 C.2   103  CYS103      0.2296
    186  O         37.6150  -11.7030   -0.7080 O.2   103  CYS103     -0.2864
    187  CB        37.6810   -8.3790   -1.1990 C.3   103  CYS103      0.0983
    188  SG        37.3700   -6.7830   -0.4340 S.3   103  CYS103     -0.0798
@<TRIPOS>BOND
     1    93    91   ar
     2    93    94   ar
     3    91    90   ar
     4    85    86    1
     5    94    96   ar
     6    94    92   ar
     7    90    89    1
     8    90    92   ar
     9    87    86    1
    10    87    88    2
    11    86    89    1
    12    96    98   ar
    13   115   113    1
    14    92    95   ar
    15   120   121    1
    16   120   117    1
    17    98    97   ar
    18    99   100    1
    19   113   112    1
    20   112   114    1
    21   112   109    1
    22    95    97   ar
    23   117   116    1
    24   117   118    1
    25   116   110   am
    26   108   109    1
    27   108   101   am
    28   109   110    1
    29   110   111    2
    30     7     5    1
    31   100   101    1
    32   100   103    1
    33   118   122   am
    34   118   119    2
    35   101   102    2
    36     3     4    2
    37     3     2    1
    38   122   123    1
    39   104   103    1
    40   104   105    1
    41    82    81    2
    42   107   105   ar
    43    15    13    1
    44   127   126    1
    45     5     2    1
    46     5     6    1
    47   105   106   ar
    48     2     1    1
    49   128   129    1
    50   124   123    1
    51   124   125    2
    52   126   123    1
    53     9    10    1
    54    81    80    1
    55    13    10    1
    56    13    14    1
    57     6     8    1
    58    76    75    2
    59   129   132    1
    60   129   130    1
    61   187   188    1
    62   187   184    1
    63    10    11    1
    64    80    79    1
    65    80    83    1
    66   185   186    2
    67   185   184    1
    68    75    79   am
    69    75    74    1
    70   132   133    1
    71   130   134   am
    72   130   131    2
    73   134   135    1
    74    12    11    2
    75    83    84    1
    76   184   183    1
    77   175   174    2
    78   136   135    1
    79   136   137    2
    80    11    16   am
    81    74    73    1
    82    74    77    1
    83   174   173    1
    84   135   138    1
    85   138   139    1
    86   183   181   am
    87   140   139   ar
    88   140   142   ar
    89   144   145    1
    90   139   141   ar
    91    16    17    1
    92    77    78    1
    93   142   143   ar
    94   181   182    2
    95   181   180    1
    96   179   180    1
    97   173   176    1
    98   173   172    1
    99   141   143   ar
   100   176   177    1
   101    31    30    1
   102    31    32    1
   103    17    18    1
   104    17    20    1
   105   177   178    1
   106    29    30    1
   107    29    26    1
   108   145   146    1
   109   145   148    1
   110    19    18    2
   111   172   178    1
   112   172   170   am
   113    18    25   am
   114   171   170    2
   115   146   147    2
   116    25    26    1
   117   170   169    1
   118   149   148    1
   119   149   150    1
   120    26    27    1
   121    20    21    1
   122   166   165    1
   123   167   165    1
   124    71    70    1
   125   169   168    1
   126   150   151    1
   127    57    56   ar
   128    57    55   ar
   129   168   163   am
   130    21    22    1
   131    56    54   ar
   132   165   162    1
   133    27    28    2
   134    27    33   am
   135    55    53   ar
   136    54    53   ar
   137    70    72    1
   138    70    67    1
   139   163   162    1
   140   163   164    2
   141    53    52    1
   142    22    24   ar
   143    22    23   ar
   144    33    34    1
   145   162   161    1
   146    68    69    2
   147    68    67    1
   148    67    66    1
   149    52    49    1
   150   161   154   am
   151    34    35    1
   152    34    37    1
   153    36    35    2
   154   155   154    2
   155   154   153    1
   156    66    60   am
   157    49    50    1
   158    49    48    1
   159    51    50    2
   160    37    38    1
   161   152   153    1
   162    61    60    2
   163    48    41   am
   164   153   156    1
   165    60    59    1
   166    43    40    1
   167    43    44    1
   168    41    42    2
   169    41    40    1
   170   156   157    1
   171    59    58    1
   172    59    62    1
   173    40    39    1
   174    44    45    1
   175   157   158    1
   176    62    63    1
   177   159   158    2
   178   158   160   am
   179    45    46    1
   180    46    47    1
   181    63    65   am
   182    63    64    2
