@<TRIPOS>MOLECULE
tmp/1gyoB04.pdb
 214 213 0 0 0
SMALL
GASTEIGER

@<TRIPOS>ATOM
      1  N         29.1690  -13.0090   -1.3000 N.3     9  ILE9       -0.1231
      2  CA        28.9120  -12.4580   -2.6050 C.3     9  ILE9        0.1692
      3  C         29.6160  -13.3670   -3.6170 C.2     9  ILE9        0.2593
      4  O         30.8130  -13.6410   -3.4440 O.2     9  ILE9       -0.2718
      5  CB        29.4100  -11.0050   -2.6980 C.3     9  ILE9        0.0266
      6  CG1       28.9830  -10.1420   -1.5290 C.3     9  ILE9        0.0019
      7  CG2       29.0080  -10.3940   -4.0640 C.3     9  ILE9        0.0020
      8  CD1       29.6370   -8.7870   -1.4750 C.3     9  ILE9        0.0001
      9  N         28.8820  -13.8080   -4.6340 N.am   10  THR10      -0.1939
     10  CA        29.4510  -14.7170   -5.6230 C.3    10  THR10       0.2028
     11  C         29.1750  -14.1590   -7.0110 C.2    10  THR10       0.2642
     12  O         28.4580  -13.2030   -7.2310 O.2    10  THR10      -0.2714
     13  CB        28.8900  -16.1370   -5.5030 C.3    10  THR10       0.1808
     14  OG1       27.4720  -16.0590   -5.7730 O.3    10  THR10      -0.2208
     15  CG2       29.0770  -16.6850   -4.0890 C.3    10  THR10       0.0379
     16  N         29.7370  -14.8350   -7.9850 N.am   11  ALA11      -0.1977
     17  CA        29.3950  -14.5290   -9.3430 C.3    11  ALA11       0.1597
     18  C         28.0150  -15.0800   -9.6240 C.2    11  ALA11       0.2287
     19  O         27.6380  -16.1210   -9.0530 O.2    11  ALA11      -0.2864
     20  CB        30.4240  -15.2020  -10.2770 C.3    11  ALA11       0.0319
     21  N         33.7920  -18.4030  -12.2430 N.3    17  PRO17      -0.2102
     22  CA        34.7390  -17.3300  -12.0090 C.3    17  PRO17       0.1504
     23  C         36.1630  -17.8610  -11.9780 C.2    17  PRO17       0.2575
     24  O         36.2340  -19.0900  -11.9160 O.2    17  PRO17      -0.2718
     25  CB        34.3430  -16.8470  -10.6200 C.3    17  PRO17       0.0282
     26  CG        33.6950  -18.0100   -9.9560 C.3    17  PRO17       0.0208
     27  CD        33.0090  -18.7830  -11.0390 C.3    17  PRO17       0.0893
     28  N         37.1540  -16.9620  -12.0330 N.am   18  HIS18      -0.1976
     29  CA        38.4950  -17.3740  -11.7500 C.3    18  HIS18       0.1656
     30  C         38.4350  -17.9580  -10.3260 C.2    18  HIS18       0.2291
     31  O         37.7720  -17.4140   -9.4130 O.2    18  HIS18      -0.2864
     32  CB        39.3920  -16.1450  -11.9110 C.3    18  HIS18       0.0771
     33  CG        40.8800  -16.3810  -11.7100 C.ar   18  HIS18       0.0820
     34  ND1       41.3260  -17.1090  -10.6380 N.ar   18  HIS18      -0.2267
     35  CD2       42.0060  -16.0050  -12.3650 C.ar   18  HIS18       0.1154
     36  CE1       42.6360  -17.1940  -10.6540 C.ar   18  HIS18       0.1986
     37  NE2       43.1480  -16.5320  -11.6820 N.ar   18  HIS18      -0.2212
     38  N         38.9710  -15.5940   -7.3760 N.3    21  PHE21      -0.1227
     39  CA        38.1540  -14.3780   -7.3310 C.3    21  PHE21       0.1736
     40  C         36.6720  -14.6740   -7.2270 C.2    21  PHE21       0.2596
     41  O         35.8580  -13.7950   -7.5320 O.2    21  PHE21      -0.2718
     42  CB        38.4390  -13.5230   -8.5600 C.3    21  PHE21       0.0547
     43  CG        39.8650  -13.0360   -8.5810 C.ar   21  PHE21      -0.0202
     44  CD1       40.8350  -13.6700   -9.3570 C.ar   21  PHE21      -0.0042
     45  CD2       40.2170  -11.9370   -7.8300 C.ar   21  PHE21      -0.0042
     46  CE1       42.1320  -13.2220   -9.3480 C.ar   21  PHE21      -0.0003
     47  CE2       41.5360  -11.5320   -7.7960 C.ar   21  PHE21      -0.0003
     48  CZ        42.4900  -12.1820   -8.5360 C.ar   21  PHE21      -0.0000
     49  N         36.2740  -15.8720   -6.8020 N.am   22  GLY22      -0.1942
     50  CA        34.8600  -16.2330   -6.9300 C.3    22  GLY22       0.2014
     51  C         33.9490  -15.9650   -5.7660 C.2    22  GLY22       0.2639
     52  O         32.7440  -16.1210   -5.9330 O.2    22  GLY22      -0.2714
     53  N         34.4630  -15.6160   -4.6030 N.am   23  LYS23      -0.1963
     54  CA        33.5660  -15.3990   -3.4290 C.3    23  LYS23       0.1728
     55  C         34.1960  -14.3690   -2.5280 C.2    23  LYS23       0.2616
     56  O         35.4030  -14.4430   -2.2430 O.2    23  LYS23      -0.2715
     57  CB        33.3080  -16.7380   -2.7090 C.3    23  LYS23       0.0311
     58  CG        33.2720  -16.7840   -1.2570 C.3    23  LYS23       0.0038
     59  CD        32.9050  -18.1440   -0.6940 C.3    23  LYS23       0.0206
     60  CE        32.5360  -18.0500    0.7830 C.3    23  LYS23       0.1093
     61  NZ        31.9580  -19.3020    1.3590 N.3    23  LYS23      -0.1314
     62  N         33.3760  -13.4540   -2.0570 N.am   24  VAL24      -0.1977
     63  CA        33.8220  -12.4020   -1.1620 C.3    24  VAL24       0.1596
     64  C         32.8240  -12.2850   -0.0170 C.2    24  VAL24       0.2287
     65  O         31.6240  -12.2070   -0.2600 O.2    24  VAL24      -0.2864
     66  CB        33.9400  -11.0550   -1.8920 C.3    24  VAL24       0.0276
     67  CG1       34.2360   -9.9110   -0.9180 C.3    24  VAL24       0.0022
     68  CG2       35.0370  -11.1040   -2.9610 C.3    24  VAL24       0.0022
     69  N         29.2440   -9.7470  -17.5320 N.3    59  ARG59      -0.1245
     70  CA        30.5380  -10.1570  -17.0240 C.3    59  ARG59       0.1563
     71  C         31.6700   -9.9020  -18.0050 C.2    59  ARG59       0.2260
     72  O         32.8520   -9.9800  -17.6050 O.2    59  ARG59      -0.2867
     73  CB        30.5480  -11.6500  -16.6870 C.3    59  ARG59       0.0307
     74  CG        29.2970  -12.3380  -16.1480 C.3    59  ARG59       0.0489
     75  CD        29.5520  -12.5000  -14.6790 C.3    59  ARG59       0.2205
     76  NE        30.6960  -13.2410  -14.1890 N.pl3  59  ARG59      -0.0865
     77  CZ        30.7930  -14.5690  -13.9920 C.cat  59  ARG59       0.5346
     78  NH1       29.7500  -15.3380  -14.2620 N.pl3  59  ARG59       0.1354
     79  NH2       31.9410  -15.0600  -13.5290 N.pl3  59  ARG59       0.1354
     80  N         34.1990   -5.2120  -18.5120 N.3    62  ARG62      -0.1245
     81  CA        34.5610   -4.6820  -17.1830 C.3    62  ARG62       0.1563
     82  C         34.6480   -3.1580  -17.1250 C.2    62  ARG62       0.2260
     83  O         34.8990   -2.5600  -16.0580 O.2    62  ARG62      -0.2867
     84  CB        35.8110   -5.3330  -16.6610 C.3    62  ARG62       0.0307
     85  CG        35.6220   -6.8200  -16.4310 C.3    62  ARG62       0.0489
     86  CD        36.8140   -7.4460  -15.7100 C.3    62  ARG62       0.2205
     87  NE        36.4840   -8.8500  -15.4750 N.pl3  62  ARG62      -0.0865
     88  CZ        37.3610   -9.8130  -15.2450 C.cat  62  ARG62       0.5346
     89  NH1       38.6560   -9.5270  -15.1790 N.pl3  62  ARG62       0.1354
     90  NH2       36.9270  -11.0330  -15.0840 N.pl3  62  ARG62       0.1354
     91  N         28.7790   -6.3130  -14.0470 N.3    68  PHE68      -0.1227
     92  CA        29.1160   -7.0030  -12.7920 C.3    68  PHE68       0.1736
     93  C         30.3840   -6.4310  -12.1530 C.2    68  PHE68       0.2595
     94  O         30.4140   -6.1130  -10.9710 O.2    68  PHE68      -0.2718
     95  CB        29.2410   -8.4930  -13.0370 C.3    68  PHE68       0.0547
     96  CG        29.5120   -9.3060  -11.7880 C.ar   68  PHE68      -0.0202
     97  CD1       28.4940   -9.5140  -10.8610 C.ar   68  PHE68      -0.0042
     98  CD2       30.7500   -9.8680  -11.5630 C.ar   68  PHE68      -0.0042
     99  CE1       28.6950  -10.2820   -9.7430 C.ar   68  PHE68      -0.0003
    100  CE2       30.9750  -10.6130  -10.4220 C.ar   68  PHE68      -0.0003
    101  CZ        29.9420  -10.8310   -9.5160 C.ar   68  PHE68      -0.0000
    102  N         31.4520   -6.3140  -12.9290 N.am   69  TYR69      -0.1976
    103  CA        32.7340   -5.9360  -12.3120 C.3    69  TYR69       0.1639
    104  C         32.7140   -4.5680  -11.6900 C.2    69  TYR69       0.2290
    105  O         33.2880   -4.3430  -10.6080 O.2    69  TYR69      -0.2864
    106  CB        33.8370   -6.0610  -13.3810 C.3    69  TYR69       0.0560
    107  CG        35.2390   -5.9480  -12.8270 C.ar   69  TYR69      -0.0198
    108  CD1       35.9120   -7.0500  -12.2950 C.ar   69  TYR69      -0.0009
    109  CD2       35.9030   -4.7450  -12.8320 C.ar   69  TYR69      -0.0009
    110  CE1       37.1900   -6.9660  -11.8000 C.ar   69  TYR69       0.0417
    111  CE2       37.1950   -4.6490  -12.3560 C.ar   69  TYR69       0.0417
    112  CZ        37.8120   -5.7370  -11.8320 C.ar   69  TYR69       0.1957
    113  OH        39.0950   -5.6250  -11.3540 O.3    69  TYR69      -0.2866
    114  N         31.6600   -3.6460   -7.9440 N.3    72  TRP72      -0.1227
    115  CA        32.5400   -3.8930   -6.7990 C.3    72  TRP72       0.1737
    116  C         33.8370   -3.1150   -6.8890 C.2    72  TRP72       0.2595
    117  O         34.5110   -2.9290   -5.8710 O.2    72  TRP72      -0.2718
    118  CB        32.8650   -5.4010   -6.6820 C.3    72  TRP72       0.0564
    119  CG        31.7160   -6.2710   -7.0840 C.ar   72  TRP72       0.0003
    120  CD1       31.6360   -6.9740   -8.2490 C.ar   72  TRP72       0.0946
    121  CD2       30.4800   -6.5110   -6.3990 C.ar   72  TRP72       0.0152
    122  NE1       30.4270   -7.6560   -8.3440 N.ar   72  TRP72      -0.2442
    123  CE2       29.7090   -7.3930   -7.1970 C.ar   72  TRP72       0.0810
    124  CE3       29.9580   -6.0900   -5.1600 C.ar   72  TRP72       0.0012
    125  CZ2       28.4630   -7.8250   -6.7850 C.ar   72  TRP72       0.0191
    126  CZ3       28.7180   -6.5330   -4.7830 C.ar   72  TRP72       0.0001
    127  CH2       28.0050   -7.3910   -5.5950 C.ar   72  TRP72       0.0015
    128  N         34.2220   -2.6950   -8.1050 N.am   73  HIS73      -0.1975
    129  CA        35.5540   -2.1610   -8.3130 C.3    73  HIS73       0.1656
    130  C         35.6070   -0.7780   -8.9400 C.2    73  HIS73       0.2291
    131  O         36.7070   -0.2200   -9.0430 O.2    73  HIS73      -0.2864
    132  CB        36.4100   -3.0820   -9.1770 C.3    73  HIS73       0.0771
    133  CG        36.3660   -4.5290   -8.7650 C.ar   73  HIS73       0.0820
    134  ND1       35.4710   -5.4280   -9.2870 N.ar   73  HIS73      -0.2267
    135  CD2       37.1400   -5.2420   -7.8880 C.ar   73  HIS73       0.1154
    136  CE1       35.6850   -6.6120   -8.7350 C.ar   73  HIS73       0.1986
    137  NE2       36.6870   -6.5340   -7.8840 N.ar   73  HIS73      -0.2212
    138  N         32.7410   -1.2550   -3.5970 N.3    80  CYS80      -0.1221
    139  CA        33.5790   -1.7050   -2.4840 C.3    80  CYS80       0.1808
    140  C         34.9180   -0.9980   -2.5320 C.2    80  CYS80       0.2601
    141  O         35.3940   -0.3530   -1.5940 O.2    80  CYS80      -0.2717
    142  CB        33.7790   -3.2030   -2.5220 C.3    80  CYS80       0.0970
    143  SG        32.3620   -4.2460   -2.8500 S.3    80  CYS80      -0.0800
    144  N         35.6070   -1.1490   -3.6830 N.am   81  ARG81      -0.1979
    145  CA        36.9720   -0.6540   -3.7650 C.3    81  ARG81       0.1597
    146  C         36.9630    0.8730   -3.8710 C.2    81  ARG81       0.2287
    147  O         37.9020    1.5400   -3.3790 O.2    81  ARG81      -0.2864
    148  CB        37.6800   -1.2970   -4.9440 C.3    81  ARG81       0.0334
    149  CG        39.1750   -1.1040   -4.9190 C.3    81  ARG81       0.0492
    150  CD        39.8220   -1.9760   -6.0090 C.3    81  ARG81       0.2205
    151  NE        41.2730   -1.9880   -5.8160 N.pl3  81  ARG81      -0.0865
    152  CZ        42.1320   -1.4480   -6.6720 C.cat  81  ARG81       0.5346
    153  NH1       41.7290   -0.8370   -7.7790 N.pl3  81  ARG81       0.1354
    154  NH2       43.4180   -1.5580   -6.3250 N.pl3  81  ARG81       0.1354
    155  N         36.4580    2.4130   -0.3980 N.3    84  HIS84      -0.1241
    156  CA        37.6510    2.2360    0.4500 C.3    84  HIS84       0.1621
    157  C         38.7910    3.0990   -0.0420 C.2    84  HIS84       0.2264
    158  O         39.4720    3.7390    0.7580 O.2    84  HIS84      -0.2867
    159  CB        38.0480    0.7610    0.4550 C.3    84  HIS84       0.0745
    160  CG        37.0340   -0.1720    1.0760 C.ar   84  HIS84       0.0817
    161  ND1       37.1660   -1.5390    0.8690 N.ar   84  HIS84      -0.2268
    162  CD2       35.9320   -0.0660    1.8530 C.ar   84  HIS84       0.1154
    163  CE1       36.1860   -2.1770    1.4910 C.ar   84  HIS84       0.1986
    164  NE2       35.3950   -1.3210    2.0930 N.ar   84  HIS84      -0.2212
    165  N         39.6760   -2.9520    2.6760 N.3    96  PRO96      -0.2102
    166  CA        40.8420   -3.2180    1.8240 C.3    96  PRO96       0.1504
    167  C         40.7020   -2.7400    0.3930 C.2    96  PRO96       0.2576
    168  O         39.6150   -2.5600   -0.1650 O.2    96  PRO96      -0.2718
    169  CB        40.9150   -4.7280    1.8910 C.3    96  PRO96       0.0282
    170  CG        39.6350   -5.2670    2.4090 C.3    96  PRO96       0.0208
    171  CD        38.9110   -4.1450    3.0310 C.3    96  PRO96       0.0893
    172  N         41.8540   -2.5950   -0.2340 N.am   97  ILE97      -0.1966
    173  CA        41.9870   -2.1300   -1.6180 C.3    97  ILE97       0.1727
    174  C         42.8190   -3.0530   -2.4970 C.2    97  ILE97       0.2617
    175  O         42.6060   -3.1490   -3.7060 O.2    97  ILE97      -0.2715
    176  CB        42.5900   -0.7330   -1.5520 C.3    97  ILE97       0.0290
    177  CG1       41.5990    0.2410   -0.8580 C.3    97  ILE97       0.0022
    178  CG2       43.0880   -0.2210   -2.8380 C.3    97  ILE97       0.0023
    179  CD1       42.3020    1.4060   -0.1670 C.3    97  ILE97       0.0001
    180  N         43.8150   -3.7320   -1.9580 N.am   98  GLY98      -0.1940
    181  CA        44.6750   -4.5520   -2.8350 C.3    98  GLY98       0.2014
    182  C         43.9360   -5.7290   -3.3890 C.2    98  GLY98       0.2639
    183  O         43.0620   -6.2990   -2.7280 O.2    98  GLY98      -0.2714
    184  N         44.2590   -6.1090   -4.6370 N.am   99  CYS99      -0.1967
    185  CA        43.4480   -7.1340   -5.2790 C.3    99  CYS99       0.1712
    186  C         43.3740   -8.4560   -4.5300 C.2    99  CYS99       0.2296
    187  O         42.3190   -9.1110   -4.6490 O.2    99  CYS99      -0.2864
    188  CB        44.0000   -7.4460   -6.6710 C.3    99  CYS99       0.0983
    189  SG        43.9830   -5.9850   -7.7440 S.3    99  CYS99      -0.0798
    190  N         44.0790   -8.7090   -1.2100 N.3   101  GLN101     -0.1245
    191  CA        44.0180   -8.3670    0.2110 C.3   101  GLN101      0.1566
    192  C         42.5720   -8.3270    0.7090 C.2   101  GLN101      0.2260
    193  O         41.7750   -7.5210    0.2040 O.2   101  GLN101     -0.2867
    194  CB        44.7350   -7.0390    0.3990 C.3   101  GLN101      0.0367
    195  CG        46.1770   -6.9780   -0.0240 C.3   101  GLN101      0.0905
    196  CD        47.0720   -8.1600    0.2620 C.2   101  GLN101      0.2608
    197  OE1       47.7280   -8.7090   -0.6390 O.2   101  GLN101     -0.2717
    198  NE2       47.2040   -8.5610    1.5190 N.am  101  GLN101     -0.0878
    199  N         39.3310   -8.9640    0.5180 N.3   103  CYS103     -0.1221
    200  CA        38.1460   -9.4360   -0.1660 C.3   103  CYS103      0.1808
    201  C         38.3920  -10.7840   -0.8670 C.2   103  CYS103      0.2601
    202  O         37.6150  -11.7030   -0.7080 O.2   103  CYS103     -0.2717
    203  CB        37.6810   -8.3790   -1.1990 C.3   103  CYS103      0.0970
    204  SG        37.3700   -6.7830   -0.4340 S.3   103  CYS103     -0.0800
    205  N         39.4870  -10.8310   -1.6310 N.am  104  HIS104     -0.1975
    206  CA        39.8780  -12.0190   -2.3700 C.3   104  HIS104      0.1656
    207  C         41.0000  -12.7520   -1.6500 C.2   104  HIS104      0.2291
    208  O         42.0080  -13.1070   -2.2460 O.2   104  HIS104     -0.2864
    209  CB        40.3330  -11.6560   -3.7860 C.3   104  HIS104      0.0771
    210  CG        39.2490  -10.9780   -4.5840 C.ar  104  HIS104      0.0820
    211  ND1       38.0490  -11.5870   -4.8870 N.ar  104  HIS104     -0.2267
    212  CD2       39.1930   -9.7720   -5.1760 C.ar  104  HIS104      0.1154
    213  CE1       37.3360  -10.7520   -5.6250 C.ar  104  HIS104      0.1986
    214  NE2       37.9850   -9.6260   -5.8210 N.ar  104  HIS104     -0.2212
@<TRIPOS>BOND
     1    80    81    1
     2    71    72    2
     3    71    70    1
     4    69    70    1
     5    81    82    1
     6    81    84    1
     7    82    83    2
     8    70    73    1
     9    73    74    1
    10    84    85    1
    11    85    86    1
    12    74    75    1
    13    86    87    1
    14    87    88    2
    15    88    89    1
    16    88    90    1
    17    75    76    1
    18    78    77    1
    19    76    77    2
    20    91    92    1
    21    77    79    1
    22   106   107    1
    23   106   103    1
    24    95    92    1
    25    95    96    1
    26   102   103    1
    27   102    93   am
    28   109   107   ar
    29   109   111   ar
    30   107   108   ar
    31    92    93    1
    32    35    33   ar
    33    35    37   ar
    34   111   112   ar
    35   103   104    1
    36   108   110   ar
    37    21    22    1
    38    21    27    1
    39    93    94    2
    40    28    23   am
    41    28    29    1
    42    22    23    1
    43    22    25    1
    44    23    24    2
    45    32    29    1
    46    32    33    1
    47   112   110   ar
    48   112   113    1
    49    96    98   ar
    50    96    97   ar
    51    29    30    1
    52    33    34   ar
    53   104   105    2
    54    37    36   ar
    55    98   100   ar
    56    27    26    1
    57    97    99   ar
    58    36    34   ar
    59    25    26    1
    60   100   101   ar
    61    30    31    2
    62    20    17    1
    63    99   101   ar
    64    18    17    1
    65    18    19    2
    66    44    46   ar
    67    44    43   ar
    68    46    48   ar
    69    17    16    1
    70   134   133   ar
    71   134   136   ar
    72   132   133    1
    73   132   129    1
    74   131   130    2
    75   130   129    1
    76   133   135   ar
    77   136   137   ar
    78    43    42    1
    79    43    45   ar
    80    42    39    1
    81    48    47   ar
    82   122   120   ar
    83   122   123   ar
    84   129   128    1
    85   120   119   ar
    86   128   116   am
    87    16    11   am
    88   114   115    1
    89   135   137   ar
    90    45    47   ar
    91   153   152    1
    92   189   188    1
    93    41    40    2
    94    38    39    1
    95    39    40    1
    96    12    11    2
    97    40    49   am
    98   123   125   ar
    99   123   121   ar
   100   119   118    1
   101   119   121   ar
   102    11    10    1
   103    50    49    1
   104    50    51    1
   105   116   115    1
   106   116   117    2
   107   115   118    1
   108   125   127   ar
   109   152   154    1
   110   152   151    2
   111   188   185    1
   112   121   124   ar
   113   150   151    1
   114   150   149    1
   115    52    51    2
   116   214   213   ar
   117   214   212   ar
   118    14    13    1
   119    51    53   am
   120   213   211   ar
   121    10    13    1
   122    10     9    1
   123   127   126   ar
   124    13    15    1
   125   185   184    1
   126   185   186    1
   127   212   210   ar
   128   124   126   ar
   129   148   149    1
   130   148   145    1
   131   211   210   ar
   132   187   186    2
   133   184   182   am
   134     9     3   am
   135    53    54    1
   136   210   209    1
   137     7     5    1
   138   146   145    1
   139   146   147    2
   140   209   206    1
   141   145   144    1
   142   175   174    2
   143   144   140   am
   144     3     4    2
   145     3     2    1
   146   138   139    1
   147    54    57    1
   148    54    55    1
   149   182   181    1
   150   182   183    2
   151    68    66    1
   152   143   142    1
   153   178   176    1
   154   181   180    1
   155    57    58    1
   156     5     2    1
   157     5     6    1
   158     2     1    1
   159   140   139    1
   160   140   141    2
   161    55    56    2
   162    55    62   am
   163   142   139    1
   164   174   180   am
   165   174   173    1
   166   206   207    1
   167   206   205    1
   168   208   207    2
   169    62    63    1
   170    66    63    1
   171    66    67    1
   172   205   201   am
   173   173   176    1
   174   173   172    1
   175   176   177    1
   176     6     8    1
   177    58    59    1
   178   190   191    1
   179   203   204    1
   180   203   200    1
   181    63    64    1
   182   201   202    2
   183   201   200    1
   184   177   179    1
   185    59    60    1
   186   197   196    2
   187   155   156    1
   188    65    64    2
   189   172   167   am
   190   200   199    1
   191   168   167    2
   192   157   156    1
   193   157   158    2
   194   195   196    1
   195   195   194    1
   196   193   192    2
   197   191   194    1
   198   191   192    1
   199   196   198   am
   200   167   166    1
   201   156   159    1
   202   159   160    1
   203    60    61    1
   204   161   160   ar
   205   161   163   ar
   206   160   162   ar
   207   163   164   ar
   208   166   169    1
   209   166   165    1
   210   162   164   ar
   211   169   170    1
   212   170   171    1
   213   165   171    1
