@<TRIPOS>MOLECULE
tmp/1gyoB01.pdb
 185 182 0 0 0
SMALL
GASTEIGER

@<TRIPOS>ATOM
      1  N         16.3080   -9.8180    9.1560 N.3     2  ASP2       -0.1225
      2  CA        16.0120   -8.7630    8.1890 C.3     2  ASP2        0.1805
      3  C         17.2630   -8.3320    7.4400 C.2     2  ASP2        0.2598
      4  O         17.2470   -8.2060    6.2010 O.2     2  ASP2       -0.2718
      5  CB        15.3530   -7.5800    8.8970 C.3     2  ASP2        0.1424
      6  CG        13.9340   -7.8270    9.3930 C.2     2  ASP2        0.3668
      7  OD1       13.4970   -6.9880   10.2160 O.co2   2  ASP2       -0.2456
      8  OD2       13.2910   -8.7700    8.9410 O.co2   2  ASP2       -0.2456
      9  N         18.3170   -8.0680    8.1750 N.am    3  VAL3       -0.1966
     10  CA        19.6390   -7.6970    7.6230 C.3     3  VAL3        0.1712
     11  C         20.6160   -8.7500    8.0900 C.2     3  VAL3        0.2458
     12  O         20.9070   -8.7990    9.2860 O.2     3  VAL3       -0.2730
     13  CB        20.0800   -6.2950    8.0030 C.3     3  VAL3        0.0289
     14  CG1       21.4860   -5.9530    7.4660 C.3     3  VAL3        0.0023
     15  CG2       19.0810   -5.2370    7.5380 C.3     3  VAL3        0.0023
     16  N         21.0880   -9.6190    7.1970 N.am    4  PRO4       -0.2727
     17  CA        22.0210  -10.6730    7.6410 C.3     4  PRO4        0.1402
     18  C         23.3170  -10.0790    8.0840 C.2     4  PRO4        0.2269
     19  O         23.8010   -9.0940    7.5100 O.2     4  PRO4       -0.2865
     20  CB        22.2560  -11.5160    6.3630 C.3     4  PRO4        0.0296
     21  CG        21.9380  -10.5500    5.2410 C.3     4  PRO4        0.0237
     22  CD        20.7850   -9.7180    5.7440 C.3     4  PRO4        0.0939
     23  N         27.2860  -11.6340    4.6070 N.3     7  VAL7       -0.1231
     24  CA        26.8230  -12.1400    3.3190 C.3     7  VAL7        0.1692
     25  C         28.0300  -12.6540    2.5370 C.2     7  VAL7        0.2592
     26  O         29.1460  -12.1510    2.7170 O.2     7  VAL7       -0.2718
     27  CB        26.0480  -11.1310    2.4890 C.3     7  VAL7        0.0266
     28  CG1       24.8250  -10.6370    3.2790 C.3     7  VAL7        0.0020
     29  CG2       26.9310   -9.9550    2.1180 C.3     7  VAL7        0.0020
     30  N         27.7540  -13.6220    1.6840 N.am    8  VAL8       -0.1966
     31  CA        28.7270  -14.1650    0.7530 C.3     8  VAL8        0.1727
     32  C         28.2850  -13.7650   -0.6530 C.2     8  VAL8        0.2616
     33  O         27.1720  -14.0710   -1.0750 O.2     8  VAL8       -0.2715
     34  CB        28.9370  -15.6680    0.8710 C.3     8  VAL8        0.0290
     35  CG1       29.9230  -16.1400   -0.1730 C.3     8  VAL8        0.0023
     36  CG2       29.4250  -16.0710    2.2680 C.3     8  VAL8        0.0023
     37  N         29.1690  -13.0090   -1.3000 N.am    9  ILE9       -0.1963
     38  CA        28.9120  -12.4580   -2.6050 C.3     9  ILE9        0.1727
     39  C         29.6160  -13.3670   -3.6170 C.2     9  ILE9        0.2616
     40  O         30.8130  -13.6410   -3.4440 O.2     9  ILE9       -0.2715
     41  CB        29.4100  -11.0050   -2.6980 C.3     9  ILE9        0.0290
     42  CG1       28.9830  -10.1420   -1.5290 C.3     9  ILE9        0.0022
     43  CG2       29.0080  -10.3940   -4.0640 C.3     9  ILE9        0.0023
     44  CD1       29.6370   -8.7870   -1.4750 C.3     9  ILE9        0.0001
     45  N         28.8820  -13.8080   -4.6340 N.am   10  THR10      -0.1951
     46  CA        29.4510  -14.7170   -5.6230 C.3    10  THR10       0.1897
     47  C         29.1750  -14.1590   -7.0110 C.2    10  THR10       0.2313
     48  O         28.4580  -13.2030   -7.2310 O.2    10  THR10      -0.2863
     49  CB        28.8900  -16.1370   -5.5030 C.3    10  THR10       0.1794
     50  OG1       27.4720  -16.0590   -5.7730 O.3    10  THR10      -0.2208
     51  CG2       29.0770  -16.6850   -4.0890 C.3    10  THR10       0.0378
     52  N         31.2160  -10.1390    3.0370 N.3    26  MET26      -0.1245
     53  CA        31.0270   -8.7880    3.5030 C.3    26  MET26       0.1570
     54  C         30.2030   -8.8320    4.7910 C.2    26  MET26       0.2261
     55  O         29.1980   -9.5800    4.8580 O.2    26  MET26      -0.2867
     56  CB        30.3140   -7.8920    2.4750 C.3    26  MET26       0.0387
     57  CG        30.3590   -6.4150    2.7810 C.3    26  MET26       0.0595
     58  SD        28.8880   -5.5500    2.2470 S.3    26  MET26      -0.1393
     59  CE        27.7390   -6.0960    3.4900 C.3    26  MET26       0.0692
     60  N         27.7000   -6.8660    7.2640 N.3    28  HIS28      -0.1241
     61  CA        26.8580   -5.6920    7.5010 C.3    28  HIS28       0.1621
     62  C         27.2150   -5.1020    8.8600 C.2    28  HIS28       0.2264
     63  O         27.1890   -3.8500    9.0100 O.2    28  HIS28      -0.2867
     64  CB        25.3650   -6.0120    7.4640 C.3    28  HIS28       0.0745
     65  CG        24.7200   -6.1360    6.1090 C.ar   28  HIS28       0.0817
     66  ND1       24.2980   -7.3140    5.5380 N.ar   28  HIS28      -0.2268
     67  CD2       24.3710   -5.1500    5.2280 C.ar   28  HIS28       0.1154
     68  CE1       23.7260   -7.0220    4.3630 C.ar   28  HIS28       0.1986
     69  NE2       23.7630   -5.7150    4.1390 N.ar   28  HIS28      -0.2212
     70  N         30.0630   -2.7190    8.6660 N.3    31  HIS31      -0.1241
     71  CA        29.6180   -1.5290    7.9310 C.3    31  HIS31       0.1621
     72  C         28.4390   -0.8680    8.6140 C.2    31  HIS31       0.2264
     73  O         27.7070   -0.1290    7.9610 O.2    31  HIS31      -0.2867
     74  CB        29.2890   -1.9110    6.4900 C.3    31  HIS31       0.0745
     75  CG        30.4770   -2.2990    5.6730 C.ar   31  HIS31       0.0817
     76  ND1       30.9070   -3.5760    5.5240 N.ar   31  HIS31      -0.2268
     77  CD2       31.3350   -1.5700    4.9320 C.ar   31  HIS31       0.1154
     78  CE1       31.9560   -3.6410    4.7080 C.ar   31  HIS31       0.1986
     79  NE2       32.2560   -2.4150    4.3180 N.ar   31  HIS31      -0.2212
     80  N         27.7820    2.8450    7.8540 N.3    34  VAL34      -0.1231
     81  CA        27.6140    3.2200    6.4650 C.3    34  VAL34       0.1692
     82  C         26.1120    3.1270    6.1400 C.2    34  VAL34       0.2593
     83  O         25.5000    2.0850    6.4050 O.2    34  VAL34      -0.2718
     84  CB        28.4360    2.3170    5.5270 C.3    34  VAL34       0.0266
     85  CG1       28.2390    2.6860    4.0750 C.3    34  VAL34       0.0020
     86  CG2       29.9310    2.3970    5.8220 C.3    34  VAL34       0.0020
     87  N         25.4740    4.1140    5.5990 N.am   35  SER35      -0.1938
     88  CA        24.0240    4.0630    5.3490 C.3    35  SER35       0.2055
     89  C         23.7000    3.0030    4.3370 C.2    35  SER35       0.2643
     90  O         24.5080    2.7560    3.4130 O.2    35  SER35      -0.2714
     91  CB        23.4890    5.3900    4.8740 C.3    35  SER35       0.2130
     92  OG        23.9680    5.7110    3.5550 O.3    35  SER35      -0.2179
     93  N         22.5230    2.3890    4.4260 N.am   36  CYS36      -0.1967
     94  CA        22.1240    1.3550    3.4660 C.3    36  CYS36       0.1712
     95  C         22.2790    1.8130    2.0290 C.2    36  CYS36       0.2296
     96  O         22.7760    1.0850    1.1900 O.2    36  CYS36      -0.2864
     97  CB        20.6690    0.9380    3.7060 C.3    36  CYS36       0.0983
     98  SG        20.0850    0.6450    5.3760 S.3    36  CYS36      -0.0798
     99  N         25.5050    1.7220   -0.3570 N.3    39  CYS39      -0.1221
    100  CA        25.7700    0.5190   -1.1340 C.3    39  CYS39       0.1808
    101  C         24.5860    0.1310   -1.9750 C.2    39  CYS39       0.2601
    102  O         24.7150   -0.0480   -3.2130 O.2    39  CYS39      -0.2717
    103  CB        26.1160   -0.6550   -0.2010 C.3    39  CYS39       0.0970
    104  SG        27.5790   -0.2840    0.7920 S.3    39  CYS39      -0.0800
    105  N         23.4100    0.0010   -1.3480 N.am   40  HIS40      -0.1975
    106  CA        22.1750   -0.2980   -2.0320 C.3    40  HIS40       0.1656
    107  C         21.6350    0.9860   -2.6540 C.2    40  HIS40       0.2291
    108  O         20.6220    1.5600   -2.1970 O.2    40  HIS40      -0.2864
    109  CB        21.1710   -0.8870   -1.0370 C.3    40  HIS40       0.0771
    110  CG        21.6170   -2.1640   -0.4020 C.ar   40  HIS40       0.0820
    111  ND1       21.5810   -3.3820   -1.0530 N.ar   40  HIS40      -0.2267
    112  CD2       22.0770   -2.4450    0.8300 C.ar   40  HIS40       0.1154
    113  CE1       22.0010   -4.3120   -0.2130 C.ar   40  HIS40       0.1986
    114  NE2       22.3180   -3.7920    0.9500 N.ar   40  HIS40      -0.2212
    115  N         17.9690    1.8500   -3.5820 N.3    43  PHE43      -0.1241
    116  CA        16.9610    1.8400   -2.5380 C.3    43  PHE43       0.1605
    117  C         16.5780    3.3010   -2.2970 C.2    43  PHE43       0.2264
    118  O         17.4070    4.1690   -2.0160 O.2    43  PHE43      -0.2867
    119  CB        17.5410    1.1700   -1.2750 C.3    43  PHE43       0.0534
    120  CG        16.5890    1.1660   -0.0970 C.ar   43  PHE43      -0.0203
    121  CD1       15.5690    0.2780   -0.0060 C.ar   43  PHE43      -0.0042
    122  CD2       16.7640    2.0410    0.9390 C.ar   43  PHE43      -0.0042
    123  CE1       14.6950    0.2410    1.0720 C.ar   43  PHE43      -0.0003
    124  CE2       15.9000    2.0300    2.0300 C.ar   43  PHE43      -0.0003
    125  CZ        14.8970    1.1150    2.1090 C.ar   43  PHE43      -0.0000
    126  N         14.7900   -5.8190   -1.4350 N.3    49  PHE49      -0.1227
    127  CA        16.1560   -5.8930   -1.7880 C.3    49  PHE49       0.1736
    128  C         16.4640   -7.0310   -2.7450 C.2    49  PHE49       0.2595
    129  O         15.9390   -8.1290   -2.6830 O.2    49  PHE49      -0.2718
    130  CB        17.0180   -6.1060   -0.5120 C.3    49  PHE49       0.0547
    131  CG        17.0880   -4.8120    0.2800 C.ar   49  PHE49      -0.0202
    132  CD1       16.0200   -4.4190    1.0750 C.ar   49  PHE49      -0.0042
    133  CD2       18.1520   -3.9620    0.2520 C.ar   49  PHE49      -0.0042
    134  CE1       16.0710   -3.2400    1.7700 C.ar   49  PHE49      -0.0003
    135  CE2       18.2330   -2.7550    0.9290 C.ar   49  PHE49      -0.0003
    136  CZ        17.1380   -2.3790    1.7100 C.ar   49  PHE49      -0.0000
    137  N         17.2990   -6.7290   -3.7250 N.am   50  GLN50      -0.1965
    138  CA        17.7390   -7.6430   -4.7630 C.3    50  GLN50       0.1733
    139  C         19.2210   -7.9860   -4.5660 C.2    50  GLN50       0.2616
    140  O         19.8710   -7.3320   -3.7720 O.2    50  GLN50      -0.2715
    141  CB        17.5760   -6.9240   -6.1270 C.3    50  GLN50       0.0408
    142  CG        16.1220   -6.7930   -6.5050 C.3    50  GLN50       0.0908
    143  CD        15.4690   -5.6070   -5.8600 C.2    50  GLN50       0.2608
    144  OE1       16.0390   -4.5130   -5.8490 O.2    50  GLN50      -0.2717
    145  NE2       14.2630   -5.8870   -5.3880 N.am   50  GLN50      -0.0878
    146  N         19.7050   -8.9290   -5.3440 N.am   51  LYS51      -0.1963
    147  CA        21.1370   -9.1100   -5.4790 C.3    51  LYS51       0.1728
    148  C         21.6500   -7.9940   -6.3810 C.2    51  LYS51       0.2616
    149  O         20.9500   -7.5430   -7.3150 O.2    51  LYS51      -0.2715
    150  CB        21.4490  -10.4490   -6.1490 C.3    51  LYS51       0.0311
    151  CG        20.9850  -11.7340   -5.5020 C.3    51  LYS51       0.0038
    152  CD        21.7330  -12.0590   -4.2450 C.3    51  LYS51       0.0206
    153  CE        21.1510  -13.3420   -3.6680 C.3    51  LYS51       0.1093
    154  NZ        21.8060  -13.5720   -2.3690 N.3    51  LYS51      -0.1314
    155  N         22.8750   -7.5240   -6.1430 N.am   52  CYS52      -0.1954
    156  CA        23.4180   -6.5100   -7.0440 C.3    52  CYS52       0.1843
    157  C         23.4160   -7.0010   -8.4920 C.2    52  CYS52       0.2625
    158  O         23.0970   -6.2190   -9.3920 O.2    52  CYS52      -0.2714
    159  CB        24.8300   -6.0890   -6.5880 C.3    52  CYS52       0.0997
    160  SG        25.0560   -5.6770   -4.8780 S.3    52  CYS52      -0.0797
    161  N         23.7200   -8.2840   -8.6990 N.am   53  ALA53      -0.1977
    162  CA        23.7510   -8.8950  -10.0090 C.3    53  ALA53       0.1597
    163  C         22.3870   -9.1320  -10.6200 C.2    53  ALA53       0.2287
    164  O         22.3350   -9.5780  -11.7720 O.2    53  ALA53      -0.2864
    165  CB        24.5390  -10.1930   -9.9260 C.3    53  ALA53       0.0319
    166  N         31.6600   -3.6460   -7.9440 N.3    72  TRP72      -0.1241
    167  CA        32.5400   -3.8930   -6.7990 C.3    72  TRP72       0.1605
    168  C         33.8370   -3.1150   -6.8890 C.2    72  TRP72       0.2264
    169  O         34.5110   -2.9290   -5.8710 O.2    72  TRP72      -0.2867
    170  CB        32.8650   -5.4010   -6.6820 C.3    72  TRP72       0.0550
    171  CG        31.7160   -6.2710   -7.0840 C.ar   72  TRP72       0.0003
    172  CD1       31.6360   -6.9740   -8.2490 C.ar   72  TRP72       0.0946
    173  CD2       30.4800   -6.5110   -6.3990 C.ar   72  TRP72       0.0152
    174  NE1       30.4270   -7.6560   -8.3440 N.ar   72  TRP72      -0.2442
    175  CE2       29.7090   -7.3930   -7.1970 C.ar   72  TRP72       0.0810
    176  CE3       29.9580   -6.0900   -5.1600 C.ar   72  TRP72       0.0012
    177  CZ2       28.4630   -7.8250   -6.7850 C.ar   72  TRP72       0.0191
    178  CZ3       28.7180   -6.5330   -4.7830 C.ar   72  TRP72       0.0001
    179  CH2       28.0050   -7.3910   -5.5950 C.ar   72  TRP72       0.0015
    180  N         32.7410   -1.2550   -3.5970 N.3    80  CYS80      -0.1235
    181  CA        33.5790   -1.7050   -2.4840 C.3    80  CYS80       0.1677
    182  C         34.9180   -0.9980   -2.5320 C.2    80  CYS80       0.2270
    183  O         35.3940   -0.3530   -1.5940 O.2    80  CYS80      -0.2867
    184  CB        33.7790   -3.2030   -2.5220 C.3    80  CYS80       0.0956
    185  SG        32.3620   -4.2460   -2.8500 S.3    80  CYS80      -0.0801
@<TRIPOS>BOND
     1   164   163    2
     2   163   162    1
     3   162   165    1
     4   162   161    1
     5   158   157    2
     6   161   157   am
     7   157   156    1
     8   174   172   ar
     9   174   175   ar
    10   172   171   ar
    11   166   167    1
    12   149   148    2
    13    48    47    2
    14   175   177   ar
    15   175   173   ar
    16   171   170    1
    17   171   173   ar
    18   156   159    1
    19   156   155    1
    20    47    46    1
    21   168   167    1
    22   168   169    2
    23   167   170    1
    24   177   179   ar
    25   159   160    1
    26   142   141    1
    27   142   143    1
    28   173   176   ar
    29   148   155   am
    30   148   147    1
    31   150   151    1
    32   150   147    1
    33   141   138    1
    34   143   144    2
    35   143   145   am
    36    50    49    1
    37    46    49    1
    38    46    45    1
    39   179   178   ar
    40    49    51    1
    41   151   152    1
    42   147   146    1
    43   146   139   am
    44   176   178   ar
    45   138   139    1
    46   138   137    1
    47    45    39   am
    48   139   140    2
    49   152   153    1
    50    43    41    1
    51   137   128   am
    52   153   154    1
    53    39    40    2
    54    39    38    1
    55   180   181    1
    56   115   116    1
    57   102   101    2
    58   185   184    1
    59   128   129    2
    60   128   127    1
    61    41    38    1
    62    41    42    1
    63   107   108    2
    64   107   106    1
    65    38    37    1
    66   116   117    1
    67   116   119    1
    68   182   181    1
    69   182   183    2
    70   184   181    1
    71   117   118    2
    72   106   105    1
    73   106   109    1
    74   101   105   am
    75   101   100    1
    76   127   126    1
    77   127   130    1
    78    42    44    1
    79    37    32   am
    80   119   120    1
    81   100    99    1
    82   100   103    1
    83    33    32    2
    84   111   110   ar
    85   111   113   ar
    86   109   110    1
    87    32    31    1
    88   130   131    1
    89   110   112   ar
    90   113   114   ar
    91   103   104    1
    92    35    34    1
    93   120   121   ar
    94   120   122   ar
    95   121   123   ar
    96   133   131   ar
    97   133   135   ar
    98   131   132   ar
    99    31    34    1
   100    31    30    1
   101   112   114   ar
   102    34    36    1
   103   135   136   ar
   104   122   124   ar
   105   123   125   ar
   106   132   134   ar
   107    96    95    2
   108    30    25   am
   109   136   134   ar
   110    95    94    1
   111   124   125   ar
   112    29    27    1
   113    58    57    1
   114    58    59    1
   115    56    57    1
   116    56    53    1
   117    27    28    1
   118    27    24    1
   119    25    26    2
   120    25    24    1
   121    52    53    1
   122    24    23    1
   123    90    89    2
   124    94    97    1
   125    94    93    1
   126    53    54    1
   127    92    91    1
   128    97    98    1
   129    85    84    1
   130    69    68   ar
   131    69    67   ar
   132    79    78   ar
   133    79    77   ar
   134    89    93   am
   135    89    88    1
   136    68    66   ar
   137    78    76   ar
   138    54    55    2
   139    91    88    1
   140    77    75   ar
   141    67    65   ar
   142    21    22    1
   143    21    20    1
   144    88    87    1
   145    76    75   ar
   146    84    86    1
   147    84    81    1
   148    66    65   ar
   149    87    82   am
   150    75    74    1
   151    22    16    1
   152    65    64    1
   153    82    83    2
   154    82    81    1
   155     4     3    2
   156    20    17    1
   157    81    80    1
   158    74    71    1
   159    16    17    1
   160    16    11   am
   161    60    61    1
   162     3     9   am
   163     3     2    1
   164    64    61    1
   165    14    13    1
   166    61    62    1
   167    19    18    2
   168    15    13    1
   169    10    13    1
   170    10    11    1
   171    10     9    1
   172    17    18    1
   173    71    72    1
   174    71    70    1
   175    73    72    2
   176    11    12    2
   177     2     5    1
   178     2     1    1
   179    62    63    2
   180     5     6    1
   181     8     6   ar
   182     6     7   ar
