@<TRIPOS>MOLECULE
tmp/1gz1A01.pdb
 170 168 0 0 0
SMALL
GASTEIGER

@<TRIPOS>ATOM
      1  N          2.7400   -2.2530    4.9670 N.3    86  TYR86      -0.1241
      2  CA         3.5650   -3.4660    5.0700 C.3    86  TYR86       0.1605
      3  C          2.9180   -4.6730    4.4080 C.2    86  TYR86       0.2264
      4  O          2.4530   -5.6020    5.0870 O.2    86  TYR86      -0.2867
      5  CB         3.8130   -3.7740    6.5330 C.3    86  TYR86       0.0534
      6  CG         4.7890   -4.8940    6.7760 C.ar   86  TYR86      -0.0201
      7  CD1        6.0490   -4.8880    6.1790 C.ar   86  TYR86      -0.0009
      8  CD2        4.4630   -5.9530    7.6080 C.ar   86  TYR86      -0.0009
      9  CE1        6.9640   -5.9270    6.4130 C.ar   86  TYR86       0.0417
     10  CE2        5.3550   -6.9820    7.8540 C.ar   86  TYR86       0.0417
     11  CZ         6.6020   -6.9870    7.2470 C.ar   86  TYR86       0.1957
     12  OH         7.4700   -8.0650    7.5180 O.3    86  TYR86      -0.2866
     13  N          9.4780   -9.8380    2.6400 N.3    92  ASP92      -0.1239
     14  CA        10.5340  -10.3990    3.4740 C.3    92  ASP92       0.1674
     15  C         11.2770  -11.4600    2.6830 C.2    92  ASP92       0.2266
     16  O         11.3500  -12.6400    3.0600 O.2    92  ASP92      -0.2867
     17  CB         9.9180  -10.9640    4.7460 C.3    92  ASP92       0.1410
     18  CG         8.9230  -10.0030    5.3990 C.2    92  ASP92       0.3668
     19  OD1        9.3020   -8.8730    5.8930 O.co2  92  ASP92      -0.2456
     20  OD2        7.7270  -10.3150    5.4550 O.co2  92  ASP92      -0.2456
     21  N         14.2150  -12.4040    2.1770 N.3    94  ALA94      -0.1231
     22  CA        15.3540  -13.1610    2.6790 C.3    94  ALA94       0.1694
     23  C         14.9420  -14.3490    3.5490 C.2    94  ALA94       0.2591
     24  O         15.7710  -15.1780    3.9170 O.2    94  ALA94      -0.2718
     25  CB        16.2600  -12.2580    3.4590 C.3    94  ALA94       0.0304
     26  N         13.6650  -14.4240    3.8900 N.am   95  ALA95      -0.1980
     27  CA        13.1990  -15.4800    4.7610 C.3    95  ALA95       0.1597
     28  C         12.8260  -16.6770    3.9050 C.2    95  ALA95       0.2287
     29  O         12.4930  -16.5360    2.7320 O.2    95  ALA95      -0.2864
     30  CB        12.0030  -15.0130    5.5720 C.3    95  ALA95       0.0319
     31  N          8.8140   -1.7440    5.9240 N.3   137  PRO137     -0.2102
     32  CA         9.9510   -2.3000    6.6230 C.3   137  PRO137      0.1504
     33  C         10.4200   -3.6030    5.9930 C.2   137  PRO137      0.2575
     34  O          9.6190   -4.3560    5.3780 O.2   137  PRO137     -0.2718
     35  CB         9.3870   -2.5650    8.0270 C.3   137  PRO137      0.0282
     36  CG         8.3870   -1.4920    8.1990 C.3   137  PRO137      0.0208
     37  CD         7.7050   -1.4290    6.8330 C.3   137  PRO137      0.0893
     38  N         11.7190   -3.8490    6.1090 N.am  138  ASP138     -0.1974
     39  CA        12.3140   -5.1210    5.6820 C.3   138  ASP138      0.1708
     40  C         12.1570   -5.3370    4.1900 C.2   138  ASP138      0.2293
     41  O         11.8980   -6.4380    3.7610 O.2   138  ASP138     -0.2864
     42  CB        11.6890   -6.3090    6.4600 C.3   138  ASP138      0.1436
     43  CG        12.4700   -7.6050    6.2650 C.2   138  ASP138      0.3671
     44  OD1       13.6970   -7.4840    6.0780 O.co2 138  ASP138     -0.2456
     45  OD2       11.9560   -8.7520    6.2540 O.co2 138  ASP138     -0.2456
     46  N         17.1250   -5.1350    1.8860 N.3   142  ASN142     -0.1240
     47  CA        17.5910   -6.4240    1.3870 C.3   142  ASN142      0.1653
     48  C         18.3250   -6.2880    0.0580 C.2   142  ASN142      0.2266
     49  O         19.1380   -7.1440   -0.3020 O.2   142  ASN142     -0.2867
     50  CB        16.4140   -7.3940    1.2580 C.3   142  ASN142      0.1155
     51  CG        15.8990   -7.8180    2.5980 C.2   142  ASN142      0.2627
     52  OD1       16.5940   -8.5240    3.3180 O.2   142  ASN142     -0.2716
     53  ND2       14.7180   -7.3260    2.9780 N.am  142  ASN142     -0.0877
     54  N         22.1170   -5.8120    0.7220 N.3   145  THR145     -0.1203
     55  CA        22.9550   -6.8890    1.2100 C.3   145  THR145      0.1994
     56  C         22.5530   -8.2740    0.8130 C.2   145  THR145      0.2617
     57  O         23.3700   -9.1460    0.9530 O.2   145  THR145     -0.2717
     58  CB        23.0290   -6.8830    2.7520 C.3   145  THR145      0.1784
     59  OG1       21.7220   -7.0760    3.3040 O.3   145  THR145     -0.2211
     60  CG2       23.4760   -5.5620    3.2670 C.3   145  THR145      0.0376
     61  N         21.3350   -8.4990    0.3310 N.am  146  ASN146     -0.1974
     62  CA        20.8640   -9.8550    0.0810 C.3   146  ASN146      0.1688
     63  C         20.6100  -10.2260   -1.3780 C.2   146  ASN146      0.2292
     64  O         19.8470  -11.1360   -1.6630 O.2   146  ASN146     -0.2864
     65  CB        19.6250  -10.1130    0.9400 C.3   146  ASN146      0.1181
     66  CG        19.9800  -10.3250    2.3960 C.2   146  ASN146      0.2629
     67  OD1       21.0040  -10.9540    2.7000 O.2   146  ASN146     -0.2716
     68  ND2       19.1450   -9.8150    3.3050 N.am  146  ASN146     -0.0877
     69  N         19.1080   -0.5230    9.6470 N.3   183  HIS183     -0.1241
     70  CA        19.6530    0.0190   10.8740 C.3   183  HIS183      0.1621
     71  C         21.1680    0.0040   10.8690 C.2   183  HIS183      0.2264
     72  O         21.8010   -0.5260    9.9460 O.2   183  HIS183     -0.2867
     73  CB        19.1320   -0.7550   12.0900 C.3   183  HIS183      0.0745
     74  CG        19.5470   -2.1910   12.1010 C.ar  183  HIS183      0.0817
     75  ND1       20.7470   -2.6120   12.6230 N.ar  183  HIS183     -0.2268
     76  CD2       18.9000   -3.3120   11.6910 C.ar  183  HIS183      0.1154
     77  CE1       20.8530   -3.9180   12.4820 C.ar  183  HIS183      0.1986
     78  NE2       19.7470   -4.3730   11.9100 N.ar  183  HIS183     -0.2212
     79  N         23.3790   -1.6940   12.1450 N.3   185  GLY185     -0.1210
     80  CA        24.0340   -2.9740   11.9950 C.3   185  GLY185      0.1956
     81  C         23.7620   -3.6860   10.6960 C.2   185  GLY185      0.2611
     82  O         24.2450   -4.7790   10.4830 O.2   185  GLY185     -0.2717
     83  N         22.9680   -3.0740    9.8460 N.am  186  TRP186     -0.1976
     84  CA        22.5860   -3.6630    8.5910 C.3   186  TRP186      0.1640
     85  C         23.2420   -2.8370    7.4820 C.2   186  TRP186      0.2290
     86  O         24.1180   -3.3300    6.7940 O.2   186  TRP186     -0.2864
     87  CB        21.0810   -3.6240    8.4410 C.3   186  TRP186      0.0576
     88  CG        20.5700   -4.4430    7.3070 C.ar  186  TRP186      0.0006
     89  CD1       21.2820   -4.9670    6.2820 C.ar  186  TRP186      0.0946
     90  CD2       19.2160   -4.8180    7.0850 C.ar  186  TRP186      0.0152
     91  NE1       20.4570   -5.6680    5.4390 N.ar  186  TRP186     -0.2442
     92  CE2       19.1760   -5.5860    5.9190 C.ar  186  TRP186      0.0810
     93  CE3       18.0200   -4.5940    7.7800 C.ar  186  TRP186      0.0012
     94  CZ2       18.0000   -6.1280    5.4290 C.ar  186  TRP186      0.0191
     95  CZ3       16.8570   -5.1260    7.2860 C.ar  186  TRP186      0.0001
     96  CH2       16.8480   -5.8660    6.1100 C.ar  186  TRP186      0.0015
     97  N         27.2750   -0.3930    8.1080 N.3   189  TRP189     -0.1241
     98  CA        28.6430   -0.8150    7.8480 C.3   189  TRP189      0.1605
     99  C         29.2270   -0.0200    6.6620 C.2   189  TRP189      0.2264
    100  O         28.5500    0.2110    5.6570 O.2   189  TRP189     -0.2867
    101  CB        28.6590   -2.2910    7.5150 C.3   189  TRP189      0.0550
    102  CG        28.3490   -3.2040    8.6650 C.ar  189  TRP189      0.0003
    103  CD1       27.1370   -3.7460    8.9880 C.ar  189  TRP189      0.0946
    104  CD2       29.2740   -3.6960    9.6370 C.ar  189  TRP189      0.0152
    105  NE1       27.2580   -4.5600   10.0930 N.ar  189  TRP189     -0.2442
    106  CE2       28.5590   -4.5500   10.5070 C.ar  189  TRP189      0.0810
    107  CE3       30.6450   -3.5210    9.8500 C.ar  189  TRP189      0.0012
    108  CZ2       29.1600   -5.1900   11.5920 C.ar  189  TRP189      0.0191
    109  CZ3       31.2510   -4.1860   10.9180 C.ar  189  TRP189      0.0001
    110  CH2       30.5010   -5.0010   11.7780 C.ar  189  TRP189      0.0015
    111  N         28.4920   -1.0030    3.1780 N.3   192  ASN192     -0.1240
    112  CA        27.0790   -0.9560    2.7710 C.3   192  ASN192      0.1653
    113  C         26.4570    0.4300    2.6970 C.2   192  ASN192      0.2266
    114  O         25.5260    0.6650    1.9240 O.2   192  ASN192     -0.2867
    115  CB        26.2110   -1.7930    3.7490 C.3   192  ASN192      0.1155
    116  CG        26.5740   -3.2680    3.7520 C.2   192  ASN192      0.2627
    117  OD1       27.0820   -3.7770    2.7720 O.2   192  ASN192     -0.2716
    118  ND2       26.2530   -3.9780    4.8570 N.am  192  ASN192     -0.0877
    119  N         13.7650    0.0180   12.7310 N.3   220  VAL220     -0.1231
    120  CA        12.4230   -0.5300   12.8090 C.3   220  VAL220      0.1692
    121  C         12.4980   -2.0030   13.1570 C.2   220  VAL220      0.2592
    122  O         13.1130   -2.7820   12.4640 O.2   220  VAL220     -0.2718
    123  CB        11.6980   -0.3650   11.4800 C.3   220  VAL220      0.0266
    124  CG1       10.3530   -0.9720   11.5590 C.3   220  VAL220      0.0020
    125  CG2       11.5830    1.1060   11.1250 C.3   220  VAL220      0.0020
    126  N         11.8340   -2.3630   14.2460 N.am  221  ALA221     -0.1966
    127  CA        11.8060   -3.7130   14.7680 C.3   221  ALA221      0.1728
    128  C         13.1360   -4.2050   15.2470 C.2   221  ALA221      0.2616
    129  O         13.2650   -5.3710   15.5180 O.2   221  ALA221     -0.2715
    130  CB        11.2040   -4.6930   13.8070 C.3   221  ALA221      0.0334
    131  N         14.1160   -3.3200   15.3690 N.am  222  ASN222     -0.1972
    132  CA        15.3870   -3.7270   15.9020 C.3   222  ASN222      0.1688
    133  C         15.6180   -3.1220   17.3010 C.2   222  ASN222      0.2292
    134  O         14.6820   -2.5190   17.9010 O.2   222  ASN222     -0.2864
    135  CB        16.5140   -3.4680   14.8910 C.3   222  ASN222      0.1181
    136  CG        17.6370   -4.5000   14.9860 C.2   222  ASN222      0.2629
    137  OD1       18.4880   -4.4060   15.8560 O.2   222  ASN222     -0.2716
    138  ND2       17.6040   -5.5240   14.1260 N.am  222  ASN222     -0.0877
    139  N         25.1820   -9.3190   16.3990 N.3   280  TRP280     -0.1227
    140  CA        24.3080   -8.1950   16.0240 C.3   280  TRP280      0.1737
    141  C         23.1690   -8.5610   15.0770 C.2   280  TRP280      0.2596
    142  O         22.1170   -7.9340   15.1250 O.2   280  TRP280     -0.2718
    143  CB        25.1420   -7.0990   15.3910 C.3   280  TRP280      0.0564
    144  CG        24.6680   -5.7130   15.5680 C.ar  280  TRP280      0.0003
    145  CD1       23.5290   -5.2830   16.1780 C.ar  280  TRP280      0.0946
    146  CD2       25.3460   -4.5410   15.1120 C.ar  280  TRP280      0.0152
    147  NE1       23.4500   -3.9160   16.1200 N.ar  280  TRP280     -0.2442
    148  CE2       24.5580   -3.4350   15.4700 C.ar  280  TRP280      0.0810
    149  CE3       26.5580   -4.3180   14.4420 C.ar  280  TRP280      0.0012
    150  CZ2       24.9390   -2.1260   15.1940 C.ar  280  TRP280      0.0191
    151  CZ3       26.9300   -3.0220   14.1590 C.ar  280  TRP280      0.0001
    152  CH2       26.1160   -1.9390   14.5290 C.ar  280  TRP280      0.0015
    153  N         23.3810   -9.5590   14.2210 N.am  281  GLY281     -0.1957
    154  CA        22.3900   -9.9520   13.2360 C.3   281  GLY281      0.1869
    155  C         21.2860  -10.8250   13.7850 C.2   281  GLY281      0.2309
    156  O         20.4180  -11.2880   13.0480 O.2   281  GLY281     -0.2863
    157  N         18.1900  -10.9360   15.0950 N.3   283  TRP283     -0.1241
    158  CA        17.0360  -10.0420   15.1070 C.3   283  TRP283      0.1605
    159  C         15.7190  -10.5030   15.7440 C.2   283  TRP283      0.2264
    160  O         14.8440   -9.6700   15.9410 O.2   283  TRP283     -0.2867
    161  CB        16.7180   -9.6620   13.6550 C.3   283  TRP283      0.0550
    162  CG        16.4040  -10.8240   12.7730 C.ar  283  TRP283      0.0003
    163  CD1       17.2670  -11.5110   11.9550 C.ar  283  TRP283      0.0946
    164  CD2       15.1290  -11.4410   12.5990 C.ar  283  TRP283      0.0152
    165  NE1       16.5980  -12.5250   11.3030 N.ar  283  TRP283     -0.2442
    166  CE2       15.2880  -12.5090   11.6900 C.ar  283  TRP283      0.0810
    167  CE3       13.8700  -11.2170   13.1390 C.ar  283  TRP283      0.0012
    168  CZ2       14.2200  -13.3130   11.2840 C.ar  283  TRP283      0.0191
    169  CZ3       12.8290  -12.0190   12.7580 C.ar  283  TRP283      0.0001
    170  CH2       13.0050  -13.0570   11.8360 C.ar  283  TRP283      0.0015
@<TRIPOS>BOND
     1    64    63    2
     2    63    62    1
     3    49    48    2
     4    48    47    1
     5    62    61    1
     6    62    65    1
     7    61    56   am
     8    54    55    1
     9    56    57    2
    10    56    55    1
    11    65    66    1
    12    55    58    1
    13    50    47    1
    14    50    51    1
    15    47    46    1
    16   114   113    2
    17    21    22    1
    18    66    67    2
    19    66    68   am
    20    51    53   am
    21    51    52    2
    22    13    14    1
    23    22    25    1
    24    22    23    1
    25    15    16    2
    26    15    14    1
    27   113   112    1
    28    29    28    2
    29    58    60    1
    30    58    59    1
    31   112   111    1
    32   112   115    1
    33   117   116    2
    34    14    17    1
    35    23    26   am
    36    23    24    2
    37   115   116    1
    38   116   118   am
    39    41    40    2
    40    26    27    1
    41    28    27    1
    42    40    39    1
    43     3     2    1
    44     3     4    2
    45    17    18    1
    46    27    30    1
    47     1     2    1
    48     2     5    1
    49    34    33    2
    50    18    20   ar
    51    18    19   ar
    52    94    92   ar
    53    94    96   ar
    54    91    92   ar
    55    91    89   ar
    56   100    99    2
    57    39    38    1
    58    39    42    1
    59    92    90   ar
    60    31    32    1
    61    31    37    1
    62    33    38   am
    63    33    32    1
    64    44    43   ar
    65    96    95   ar
    66     7     9   ar
    67     7     6   ar
    68    45    43   ar
    69    43    42    1
    70    89    88   ar
    71     9    11   ar
    72     5     6    1
    73    32    35    1
    74    99    98    1
    75     6     8   ar
    76    86    85    2
    77    37    36    1
    78    90    88   ar
    79    90    93   ar
    80    11    12    1
    81    11    10   ar
    82    95    93   ar
    83    88    87    1
    84    85    84    1
    85   101    98    1
    86   101   102    1
    87     8    10   ar
    88    98    97    1
    89    35    36    1
    90    87    84    1
    91    84    83    1
    92   102   103   ar
    93   102   104   ar
    94   103   105   ar
    95   104   107   ar
    96   104   106   ar
    97    69    70    1
    98    83    81   am
    99   107   109   ar
   100    72    71    2
   101   105   106   ar
   102    82    81    2
   103   106   108   ar
   104    81    80    1
   105    71    70    1
   106    70    73    1
   107   109   110   ar
   108   125   123    1
   109   168   166   ar
   110   168   170   ar
   111   165   166   ar
   112   165   163   ar
   113   123   124    1
   114   123   120    1
   115   108   110   ar
   116   166   164   ar
   117    76    78   ar
   118    76    74   ar
   119   170   169   ar
   120    78    77   ar
   121   163   162   ar
   122    80    79    1
   123    73    74    1
   124    74    75   ar
   125   122   121    2
   126    77    75   ar
   127   164   162   ar
   128   164   167   ar
   129   119   120    1
   130   169   167   ar
   131   162   161    1
   132   120   121    1
   133   156   155    2
   134   121   126   am
   135   154   155    1
   136   154   153    1
   137   161   158    1
   138   130   127    1
   139   138   136   am
   140   151   149   ar
   141   151   152   ar
   142   153   141   am
   143   126   127    1
   144   149   146   ar
   145   152   150   ar
   146   127   128    1
   147   135   136    1
   148   135   132    1
   149   136   137    2
   150   141   142    2
   151   141   140    1
   152   157   158    1
   153   158   159    1
   154   146   148   ar
   155   146   144   ar
   156   150   148   ar
   157   128   131   am
   158   128   129    2
   159   131   132    1
   160   143   144    1
   161   143   140    1
   162   148   147   ar
   163   144   145   ar
   164   159   160    2
   165   132   133    1
   166   140   139    1
   167   147   145   ar
   168   133   134    2
