@<TRIPOS>MOLECULE
tmp/1gz3A00.pdb
 186 177 0 0 0
SMALL
GASTEIGER

@<TRIPOS>ATOM
      1  N         31.4030   29.9540    0.8540 N.3   146  ARG146     -0.1245
      2  CA        30.5810   30.9460    0.1630 C.3   146  ARG146      0.1563
      3  C         29.1280   30.8470    0.6600 C.2   146  ARG146      0.2260
      4  O         28.2470   30.3980   -0.0650 O.2   146  ARG146     -0.2867
      5  CB        30.6380   30.7000   -1.3520 C.3   146  ARG146      0.0307
      6  CG        30.3230   31.9070   -2.2090 C.3   146  ARG146      0.0489
      7  CD        29.1620   31.6300   -3.1390 C.3   146  ARG146      0.2205
      8  NE        27.9890   31.2220   -2.3830 N.pl3 146  ARG146     -0.0865
      9  CZ        26.7670   31.1570   -2.8830 C.cat 146  ARG146      0.5346
     10  NH1       26.5510   31.4810   -4.1490 N.pl3 146  ARG146      0.1354
     11  NH2       25.7690   30.7580   -2.1130 N.pl3 146  ARG146      0.1354
     12  N         25.8330   32.1320    1.0530 N.3   148  LEU148     -0.1231
     13  CA        25.0270   33.1870    0.4510 C.3   148  LEU148      0.1693
     14  C         26.0390   34.2140   -0.0660 C.2   148  LEU148      0.2592
     15  O         27.0260   33.8480   -0.7030 O.2   148  LEU148     -0.2718
     16  CB        24.0940   33.8210    1.4870 C.3   148  LEU148      0.0284
     17  CG        23.0860   32.9060    2.2040 C.3   148  LEU148      0.0019
     18  CD1       22.2440   33.7400    3.1730 C.3   148  LEU148      0.0001
     19  CD2       22.1930   32.2030    1.1920 C.3   148  LEU148      0.0001
     20  N         25.8040   35.4880    0.2220 N.am  149  GLY149     -0.1957
     21  CA        26.7240   36.5280   -0.2050 C.3   149  GLY149      0.1869
     22  C         27.4750   37.0460    1.0070 C.2   149  GLY149      0.2309
     23  O         28.0560   38.1240    0.9750 O.2   149  GLY149     -0.2863
     24  N         33.8120   29.6140   -5.3740 N.3   240  ASN240     -0.1240
     25  CA        33.8340   29.5630   -6.8360 C.3   240  ASN240      0.1653
     26  C         34.7310   28.4690   -7.4380 C.2   240  ASN240      0.2266
     27  O         34.2490   27.5750   -8.1410 O.2   240  ASN240     -0.2867
     28  CB        34.2450   30.9310   -7.3900 C.3   240  ASN240      0.1155
     29  CG        34.2250   30.9830   -8.9120 C.2   240  ASN240      0.2627
     30  OD1       35.0840   30.3970   -9.5800 O.2   240  ASN240     -0.2716
     31  ND2       33.2360   31.6830   -9.4680 N.am  240  ASN240     -0.0877
     32  N         23.9660   26.3730   -6.4070 N.3   260  ASP260     -0.1239
     33  CA        24.3510   27.7320   -6.7460 C.3   260  ASP260      0.1674
     34  C         24.6470   27.9810   -8.2050 C.2   260  ASP260      0.2266
     35  O         24.5020   29.0990   -8.6860 O.2   260  ASP260     -0.2867
     36  CB        25.5380   28.1150   -5.8880 C.3   260  ASP260      0.1410
     37  CG        25.2660   27.8520   -4.4380 C.2   260  ASP260      0.3668
     38  OD1       24.3360   28.5020   -3.9210 O.co2 260  ASP260     -0.2456
     39  OD2       25.9440   26.9880   -3.8320 O.co2 260  ASP260     -0.2456
     40  N         20.1900   27.8390   -9.1950 N.3   264  THR264     -0.1218
     41  CA        19.9910   29.2600   -9.4480 C.3   264  THR264      0.1862
     42  C         19.8480   29.5470  -10.9470 C.2   264  THR264      0.2287
     43  O         19.1480   30.4760  -11.3560 O.2   264  THR264     -0.2866
     44  CB        21.1640   30.0710   -8.8770 C.3   264  THR264      0.1770
     45  OG1       21.1490   29.9690   -7.4470 O.3   264  THR264     -0.2211
     46  CG2       21.0600   31.5400   -9.2830 C.3   264  THR264      0.0375
     47  N         26.0330   41.1890  -13.8600 N.3   291  LEU291     -0.1231
     48  CA        26.8700   41.8890  -12.9020 C.3   291  LEU291      0.1693
     49  C         27.4310   40.7010  -12.1290 C.2   291  LEU291      0.2593
     50  O         26.7740   40.1630  -11.2350 O.2   291  LEU291     -0.2718
     51  CB        26.0550   42.7730  -11.9500 C.3   291  LEU291      0.0284
     52  CG        26.9190   43.3120  -10.7950 C.3   291  LEU291      0.0019
     53  CD1       27.7150   44.5230  -11.2690 C.3   291  LEU291      0.0001
     54  CD2       26.0430   43.6850   -9.6100 C.3   291  LEU291      0.0001
     55  N         28.6380   40.2840  -12.5030 N.am  292  GLY292     -0.1942
     56  CA        29.2670   39.1390  -11.8750 C.3   292  GLY292      0.2014
     57  C         29.5500   38.1330  -12.9740 C.2   292  GLY292      0.2639
     58  O         28.9300   38.1860  -14.0400 O.2   292  GLY292     -0.2714
     59  N         30.4840   37.2220  -12.7280 N.am  293  ALA293     -0.1963
     60  CA        30.8430   36.2170  -13.7200 C.3   293  ALA293      0.1728
     61  C         31.2750   34.9440  -13.0130 C.2   293  ALA293      0.2617
     62  O         32.2220   34.2810  -13.4370 O.2   293  ALA293     -0.2715
     63  CB        31.9840   36.7410  -14.6150 C.3   293  ALA293      0.0334
     64  N         30.5760   34.6120  -11.9290 N.am  294  GLY294     -0.1940
     65  CA        30.9090   33.4250  -11.1640 C.3   294  GLY294      0.2014
     66  C         29.9130   32.2890  -11.2780 C.2   294  GLY294      0.2639
     67  O         29.3030   32.0820  -12.3280 O.2   294  GLY294     -0.2714
     68  N         29.7510   31.5550  -10.1790 N.am  295  GLU295     -0.1963
     69  CA        28.8530   30.4130  -10.1230 C.3   295  GLU295      0.1733
     70  C         27.4790   30.6690  -10.7480 C.2   295  GLU295      0.2616
     71  O         27.0610   29.9520  -11.6650 O.2   295  GLU295     -0.2715
     72  CB        28.6930   29.9410   -8.6630 C.3   295  GLU295      0.0429
     73  CG        29.9500   29.2710   -8.0680 C.3   295  GLU295      0.1163
     74  CD        29.7930   28.8830   -6.5900 C.2   295  GLU295      0.3649
     75  OE1       28.7690   28.2560   -6.2450 O.co2 295  GLU295     -0.2457
     76  OE2       30.6970   29.1960   -5.7750 O.co2 295  GLU295     -0.2457
     77  N         26.7780   31.6890  -10.2690 N.am  296  ALA296     -0.1963
     78  CA        25.4470   31.9780  -10.7900 C.3   296  ALA296      0.1728
     79  C         25.4290   32.5280  -12.2200 C.2   296  ALA296      0.2616
     80  O         24.6610   32.0570  -13.0670 O.2   296  ALA296     -0.2715
     81  CB        24.7190   32.9350   -9.8470 C.3   296  ALA296      0.0334
     82  N         26.2690   33.5170  -12.4950 N.am  297  ALA297     -0.1977
     83  CA        26.3110   34.1050  -13.8310 C.3   297  ALA297      0.1597
     84  C         26.5950   33.0550  -14.8950 C.2   297  ALA297      0.2287
     85  O         25.8740   32.9560  -15.8910 O.2   297  ALA297     -0.2864
     86  CB        27.3610   35.2090  -13.8880 C.3   297  ALA297      0.0319
     87  N         30.1690   41.4280  -16.4030 N.3   325  PHE325     -0.1227
     88  CA        30.9900   42.4630  -15.7880 C.3   325  PHE325      0.1736
     89  C         31.2900   42.0480  -14.3480 C.2   325  PHE325      0.2595
     90  O         30.4200   42.1480  -13.4870 O.2   325  PHE325     -0.2718
     91  CB        30.1970   43.7760  -15.7960 C.3   325  PHE325      0.0547
     92  CG        30.9720   44.9790  -15.3290 C.ar  325  PHE325     -0.0202
     93  CD1       31.5650   45.8370  -16.2500 C.ar  325  PHE325     -0.0042
     94  CD2       31.0430   45.2980  -13.9730 C.ar  325  PHE325     -0.0042
     95  CE1       32.2050   46.9990  -15.8360 C.ar  325  PHE325     -0.0003
     96  CE2       31.6830   46.4580  -13.5430 C.ar  325  PHE325     -0.0003
     97  CZ        32.2650   47.3160  -14.4780 C.ar  325  PHE325     -0.0000
     98  N         32.5090   41.5840  -14.0780 N.am  326  ASP326     -0.1960
     99  CA        32.8590   41.1660  -12.7180 C.3   326  ASP326      0.1840
    100  C         33.5520   42.2780  -11.9280 C.2   326  ASP326      0.2622
    101  O         33.5350   43.4350  -12.3390 O.2   326  ASP326     -0.2715
    102  CB        33.7460   39.9140  -12.7340 C.3   326  ASP326      0.1450
    103  CG        35.0920   40.1550  -13.3900 C.2   326  ASP326      0.3671
    104  OD1       35.6360   41.2670  -13.2550 O.co2 326  ASP326     -0.2456
    105  OD2       35.6170   39.2250  -14.0290 O.co2 326  ASP326     -0.2456
    106  N         34.1640   41.9240  -10.7990 N.am  327  LYS327     -0.1963
    107  CA        34.8370   42.9130   -9.9520 C.3   327  LYS327      0.1728
    108  C         35.9690   43.6730  -10.6440 C.2   327  LYS327      0.2616
    109  O         36.4280   44.6970  -10.1370 O.2   327  LYS327     -0.2715
    110  CB        35.3910   42.2580   -8.6810 C.3   327  LYS327      0.0311
    111  CG        36.5560   41.3150   -8.9430 C.3   327  LYS327      0.0038
    112  CD        37.3430   40.9820   -7.6760 C.3   327  LYS327      0.0206
    113  CE        36.5400   40.1440   -6.6950 C.3   327  LYS327      0.1093
    114  NZ        37.4140   39.6130   -5.6070 N.3   327  LYS327     -0.1314
    115  N         36.4290   43.1800  -11.7880 N.am  328  TYR328     -0.1974
    116  CA        37.5000   43.8700  -12.5020 C.3   328  TYR328      0.1639
    117  C         36.9710   44.6490  -13.6970 C.2   328  TYR328      0.2290
    118  O         37.7070   45.4170  -14.3160 O.2   328  TYR328     -0.2864
    119  CB        38.5690   42.8750  -12.9590 C.3   328  TYR328      0.0560
    120  CG        39.1460   42.0580  -11.8190 C.ar  328  TYR328     -0.0198
    121  CD1       38.6910   40.7650  -11.5640 C.ar  328  TYR328     -0.0009
    122  CD2       40.1200   42.5940  -10.9700 C.ar  328  TYR328     -0.0009
    123  CE1       39.1870   40.0220  -10.4940 C.ar  328  TYR328      0.0417
    124  CE2       40.6220   41.8590   -9.8960 C.ar  328  TYR328      0.0417
    125  CZ        40.1510   40.5740   -9.6670 C.ar  328  TYR328      0.1957
    126  OH        40.6480   39.8360   -8.6160 O.3   328  TYR328     -0.2866
    127  N         34.2980   31.2370  -18.7470 N.3   343  GLN343     -0.1245
    128  CA        33.9560   32.6110  -19.0920 C.3   343  GLN343      0.1566
    129  C         34.2750   32.9740  -20.5410 C.2   343  GLN343      0.2260
    130  O         33.6740   33.8930  -21.1060 O.2   343  GLN343     -0.2867
    131  CB        34.7060   33.5840  -18.1720 C.3   343  GLN343      0.0367
    132  CG        34.5180   33.3460  -16.6750 C.3   343  GLN343      0.0905
    133  CD        35.4620   34.1950  -15.8260 C.2   343  GLN343      0.2608
    134  OE1       36.6780   34.1920  -16.0390 O.2   343  GLN343     -0.2717
    135  NE2       34.9070   34.9190  -14.8570 N.am  343  GLN343     -0.0878
    136  N         24.2530   39.3310   -9.8060 N.3   373  VAL373     -0.1231
    137  CA        24.6220   38.1110   -9.1380 C.3   373  VAL373      0.1692
    138  C         26.0990   38.1760   -8.7240 C.2   373  VAL373      0.2592
    139  O         26.9000   37.2780   -9.0080 O.2   373  VAL373     -0.2718
    140  CB        24.2900   36.9480  -10.0850 C.3   373  VAL373      0.0266
    141  CG1       25.3360   36.8230  -11.1740 C.3   373  VAL373      0.0020
    142  CG2       24.0670   35.7150   -9.3020 C.3   373  VAL373      0.0020
    143  N         26.4260   39.2570   -8.0200 N.am  374  ALA374     -0.1966
    144  CA        27.7810   39.5210   -7.5500 C.3   374  ALA374      0.1728
    145  C         27.9310   39.3830   -6.0360 C.2   374  ALA374      0.2617
    146  O         29.0440   39.4410   -5.5190 O.2   374  ALA374     -0.2715
    147  CB        28.2100   40.9290   -7.9800 C.3   374  ALA374      0.0334
    148  N         26.8070   39.2060   -5.3410 N.am  375  GLY375     -0.1940
    149  CA        26.8180   39.0680   -3.8950 C.3   375  GLY375      0.2014
    150  C         27.6400   40.1380   -3.2100 C.2   375  GLY375      0.2638
    151  O         28.2670   39.8820   -2.1810 O.2   375  GLY375     -0.2714
    152  N         27.6200   41.3480   -3.7650 N.am  376  ALA376     -0.1977
    153  CA        28.4080   42.4480   -3.2190 C.3   376  ALA376      0.1597
    154  C         27.6440   43.7070   -2.8030 C.2   376  ALA376      0.2287
    155  O         28.2400   44.7690   -2.6650 O.2   376  ALA376     -0.2864
    156  CB        29.4920   42.8200   -4.2170 C.3   376  ALA376      0.0319
    157  N         24.8610   47.1960   -6.0040 N.3   379  LEU379     -0.1245
    158  CA        25.5750   47.6070   -7.2080 C.3   379  LEU379      0.1561
    159  C         24.6500   48.1190   -8.3160 C.2   379  LEU379      0.2260
    160  O         25.1060   48.7520   -9.2730 O.2   379  LEU379     -0.2867
    161  CB        26.4500   46.4560   -7.7130 C.3   379  LEU379      0.0270
    162  CG        27.9390   46.4530   -7.3160 C.3   379  LEU379      0.0019
    163  CD1       28.2410   47.5000   -6.2370 C.3   379  LEU379      0.0001
    164  CD2       28.3160   45.0610   -6.8480 C.3   379  LEU379      0.0001
    165  N         19.4630   39.1630   -7.7590 N.3   400  LEU400     -0.1231
    166  CA        19.4440   37.8500   -7.1140 C.3   400  LEU400      0.1693
    167  C         20.3530   37.5310   -5.9240 C.2   400  LEU400      0.2593
    168  O         20.2120   36.4660   -5.3220 O.2   400  LEU400     -0.2718
    169  CB        19.6650   36.7870   -8.1940 C.3   400  LEU400      0.0284
    170  CG        18.8580   36.9970   -9.4830 C.3   400  LEU400      0.0019
    171  CD1       19.1530   35.8640  -10.4460 C.3   400  LEU400      0.0001
    172  CD2       17.3630   37.0630   -9.1710 C.3   400  LEU400      0.0001
    173  N         21.2830   38.4150   -5.5850 N.am  401  SER401     -0.1938
    174  CA        22.1840   38.1350   -4.4680 C.3   401  SER401      0.2055
    175  C         21.4900   38.1330   -3.1030 C.2   401  SER401      0.2643
    176  O         20.6630   39.0000   -2.8020 O.2   401  SER401     -0.2714
    177  CB        23.3450   39.1360   -4.4680 C.3   401  SER401      0.2130
    178  OG        24.2330   38.8790   -5.5470 O.3   401  SER401     -0.2179
    179  N         21.8280   37.1450   -2.2830 N.am  402  ASN402     -0.1971
    180  CA        21.2510   37.0160   -0.9530 C.3   402  ASN402      0.1688
    181  C         22.3710   37.1590    0.0840 C.2   402  ASN402      0.2292
    182  O         23.5410   36.9440   -0.2390 O.2   402  ASN402     -0.2864
    183  CB        20.5880   35.6510   -0.8120 C.3   402  ASN402      0.1181
    184  CG        19.5710   35.3840   -1.9050 C.2   402  ASN402      0.2629
    185  OD1       18.6050   36.1380   -2.0660 O.2   402  ASN402     -0.2716
    186  ND2       19.7760   34.3030   -2.6620 N.am  402  ASN402     -0.0877
@<TRIPOS>BOND
     1   130   129    2
     2   129   128    1
     3   128   127    1
     4   128   131    1
     5   131   132    1
     6   132   133    1
     7    87    88    1
     8    93    95   ar
     9    93    92   ar
    10   134   133    2
    11    85    84    2
    12    95    97   ar
    13   133   135   am
    14    91    88    1
    15    91    92    1
    16    88    89    1
    17    92    94   ar
    18    84    83    1
    19    63    60    1
    20    97    96   ar
    21    89    98   am
    22    89    90    2
    23   118   117    2
    24    98    99    1
    25    58    57    2
    26   105   103   ar
    27    94    96   ar
    28    86    83    1
    29    47    48    1
    30    83    82    1
    31    60    61    1
    32    60    59    1
    33   117   116    1
    34    62    61    2
    35   103   104   ar
    36   103   102    1
    37    80    79    2
    38    61    64   am
    39    57    59   am
    40    57    56    1
    41   119   116    1
    42   119   120    1
    43    48    49    1
    44    48    51    1
    45   102    99    1
    46    99   100    1
    47    55    49   am
    48    55    56    1
    49   116   115    1
    50    82    79   am
    51   101   100    2
    52    67    66    2
    53    79    78    1
    54    49    50    2
    55    51    52    1
    56    64    65    1
    57   100   106   am
    58   120   121   ar
    59   120   122   ar
    60   115   108   am
    61    71    70    2
    62   121   123   ar
    63    43    42    2
    64    66    65    1
    65    66    68   am
    66    53    52    1
    67   141   140    1
    68   122   124   ar
    69    42    41    1
    70   106   107    1
    71    52    54    1
    72    78    77    1
    73    78    81    1
    74    70    77   am
    75    70    69    1
    76   108   109    2
    77   108   107    1
    78   123   125   ar
    79   171   170    1
    80    68    69    1
    81    69    72    1
    82   140   142    1
    83   140   137    1
    84   107   110    1
    85   124   125   ar
    86   136   137    1
    87   125   126    1
    88    30    29    2
    89   170   172    1
    90   170   169    1
    91    31    29   am
    92    41    40    1
    93    41    44    1
    94    46    44    1
    95   160   159    2
    96   137   138    1
    97   139   138    2
    98   111   110    1
    99   111   112    1
   100    29    28    1
   101    44    45    1
   102   138   143   am
   103    35    34    2
   104    72    73    1
   105   159   158    1
   106    34    33    1
   107   169   166    1
   108    27    26    2
   109    73    74    1
   110   143   144    1
   111   147   144    1
   112   165   166    1
   113   161   162    1
   114   161   158    1
   115   112   113    1
   116   144   145    1
   117    26    25    1
   118    28    25    1
   119   162   164    1
   120   162   163    1
   121   158   157    1
   122   166   167    1
   123    25    24    1
   124    33    32    1
   125    33    36    1
   126   113   114    1
   127    74    75   ar
   128    74    76   ar
   129   145   146    2
   130   145   148   am
   131   167   173   am
   132   167   168    2
   133    36    37    1
   134   173   174    1
   135   178   177    1
   136   148   149    1
   137   174   177    1
   138   174   175    1
   139    37    38   ar
   140    37    39   ar
   141   156   153    1
   142    10     9    1
   143   149   150    1
   144   152   153    1
   145   152   150   am
   146   153   154    1
   147   150   151    2
   148     7     8    1
   149     7     6    1
   150   175   176    2
   151   175   179   am
   152     9     8    2
   153     9    11    1
   154   154   155    2
   155   186   184   am
   156   179   180    1
   157     6     5    1
   158   185   184    2
   159   184   183    1
   160     5     2    1
   161   180   183    1
   162   180   181    1
   163    15    14    2
   164   182   181    2
   165    21    20    1
   166    21    22    1
   167    14    20   am
   168    14    13    1
   169     4     3    2
   170     2     3    1
   171     2     1    1
   172    13    12    1
   173    13    16    1
   174    23    22    2
   175    19    17    1
   176    16    17    1
   177    17    18    1
