@<TRIPOS>MOLECULE
tmp/1gz3A01.pdb
 88 81 0 0 0
SMALL
GASTEIGER

@<TRIPOS>ATOM
      1  N          4.2790   14.6420   21.8350 N.3    18  GLY18      -0.1210
      2  CA         3.8540   15.4920   22.9300 C.3    18  GLY18       0.1956
      3  C          2.4950   15.0020   23.3970 C.2    18  GLY18       0.2611
      4  O          2.2520   13.7970   23.4310 O.2    18  GLY18      -0.2717
      5  N          1.5970   15.9200   23.7340 N.am   19  MET19      -0.1979
      6  CA         0.2680   15.5350   24.1990 C.3    19  MET19       0.1605
      7  C         -0.6440   14.9520   23.1180 C.2    19  MET19       0.2287
      8  O         -1.8250   14.7010   23.3600 O.2    19  MET19      -0.2864
      9  CB        -0.4020   16.7290   24.8780 C.3    19  MET19       0.0413
     10  CG         0.1610   17.0070   26.2530 C.3    19  MET19       0.0598
     11  SD        -0.6800   18.3260   27.1360 S.3    19  MET19      -0.1393
     12  CE         0.1840   19.7520   26.4940 C.3    19  MET19       0.0692
     13  N         -4.2160   15.9500   23.1480 N.3    40  GLU40      -0.1245
     14  CA        -4.3930   17.0380   22.1890 C.3    40  GLU40       0.1567
     15  C         -4.3310   16.5970   20.7270 C.2    40  GLU40       0.2260
     16  O         -3.8820   15.4950   20.4120 O.2    40  GLU40      -0.2867
     17  CB        -3.3450   18.1390   22.4350 C.3    40  GLU40       0.0388
     18  CG        -3.4760   18.8610   23.7840 C.3    40  GLU40       0.1160
     19  CD        -2.4310   19.9600   23.9870 C.2    40  GLU40       0.3649
     20  OE1       -1.3560   19.8850   23.3670 O.co2  40  GLU40      -0.2457
     21  OE2       -2.6700   20.8950   24.7860 O.co2  40  GLU40      -0.2457
     22  N         -1.9970   21.9510   18.9270 N.3    45  GLN45      -0.1245
     23  CA        -0.5620   22.1770   19.0330 C.3    45  GLN45       0.1566
     24  C         -0.1270   23.2830   18.0800 C.2    45  GLN45       0.2260
     25  O          0.6580   24.1570   18.4480 O.2    45  GLN45      -0.2867
     26  CB         0.1940   20.8890   18.7140 C.3    45  GLN45       0.0367
     27  CG         0.0840   19.8280   19.7920 C.3    45  GLN45       0.0905
     28  CD         0.6990   18.5080   19.3780 C.2    45  GLN45       0.2608
     29  OE1        1.2440   17.7790   20.2100 O.2    45  GLN45      -0.2717
     30  NE2        0.6030   18.1820   18.0920 N.am   45  GLN45      -0.0878
     31  N         -1.1460   26.5590   19.5010 N.3    48  ARG48      -0.1245
     32  CA        -0.2680   26.9910   20.5840 C.3    48  ARG48       0.1563
     33  C          0.9500   27.6780   19.9830 C.2    48  ARG48       0.2260
     34  O          1.3710   28.7360   20.4500 O.2    48  ARG48      -0.2867
     35  CB         0.1690   25.7860   21.4350 C.3    48  ARG48       0.0307
     36  CG         1.2030   26.1130   22.5020 C.3    48  ARG48       0.0489
     37  CD         1.6500   24.8710   23.2890 C.3    48  ARG48       0.2205
     38  NE         0.6260   24.3790   24.2070 N.pl3  48  ARG48      -0.0865
     39  CZ        -0.0140   23.2220   24.0680 C.cat  48  ARG48       0.5346
     40  NH1        0.2680   22.4260   23.0440 N.pl3  48  ARG48       0.1354
     41  NH2       -0.9480   22.8690   24.9440 N.pl3  48  ARG48       0.1354
     42  N         13.0310   29.6670   17.8510 N.3    65  TYR65      -0.1241
     43  CA        11.8290   28.9930   18.3340 C.3    65  TYR65       0.1605
     44  C         11.3380   27.9020   17.3710 C.2    65  TYR65       0.2264
     45  O         11.0890   26.7600   17.7800 O.2    65  TYR65      -0.2867
     46  CB        10.7290   30.0320   18.5530 C.3    65  TYR65       0.0534
     47  CG         9.3940   29.4760   19.0000 C.ar   65  TYR65      -0.0201
     48  CD1        9.3230   28.4400   19.9310 C.ar   65  TYR65      -0.0009
     49  CD2        8.1970   30.0120   18.5200 C.ar   65  TYR65      -0.0009
     50  CE1        8.1000   27.9500   20.3740 C.ar   65  TYR65       0.0417
     51  CE2        6.9620   29.5310   18.9590 C.ar   65  TYR65       0.0417
     52  CZ         6.9250   28.4960   19.8890 C.ar   65  TYR65       0.1957
     53  OH         5.7220   27.9950   20.3310 O.3    65  TYR65      -0.2866
     54  N         11.6770   23.5050   17.4310 N.3    69  ILE69      -0.1245
     55  CA        10.6090   22.5290   17.3450 C.3    69  ILE69       0.1561
     56  C         11.0370   21.3160   16.5100 C.2    69  ILE69       0.2260
     57  O         10.5780   20.1950   16.7530 O.2    69  ILE69      -0.2867
     58  CB         9.3370   23.1750   16.7540 C.3    69  ILE69       0.0252
     59  CG1        8.8700   24.3040   17.6870 C.3    69  ILE69       0.0019
     60  CG2        8.2370   22.1340   16.5900 C.3    69  ILE69       0.0019
     61  CD1        7.6660   25.0870   17.1840 C.3    69  ILE69       0.0001
     62  N         12.2240   18.8060   18.7360 N.3    72  ARG72      -0.1231
     63  CA        11.3090   18.3540   19.7880 C.3    72  ARG72       0.1694
     64  C         10.1930   17.4820   19.2450 C.2    72  ARG72       0.2592
     65  O          9.9450   16.3960   19.7610 O.2    72  ARG72      -0.2718
     66  CB        10.6940   19.5400   20.5470 C.3    72  ARG72       0.0321
     67  CG        11.6290   20.1610   21.5880 C.3    72  ARG72       0.0489
     68  CD        10.8930   21.1410   22.5110 C.3    72  ARG72       0.2205
     69  NE        10.3710   22.3050   21.8050 N.pl3  72  ARG72      -0.0865
     70  CZ        11.0540   23.4180   21.5730 C.cat  72  ARG72       0.5346
     71  NH1       12.3070   23.5410   21.9970 N.pl3  72  ARG72       0.1354
     72  NH2       10.4810   24.4100   20.8960 N.pl3  72  ARG72       0.1354
     73  N          9.5290   17.9640   18.2000 N.am   73  ASN73      -0.1974
     74  CA         8.4120   17.2510   17.5730 C.3    73  ASN73       0.1688
     75  C          8.5000   17.5270   16.0720 C.2    73  ASN73       0.2292
     76  O          8.0150   18.5560   15.5890 O.2    73  ASN73      -0.2864
     77  CB         7.0880   17.7860   18.1320 C.3    73  ASN73       0.1181
     78  CG         5.8740   16.9840   17.6740 C.2    73  ASN73       0.2629
     79  OD1        5.8680   16.3970   16.6000 O.2    73  ASN73      -0.2716
     80  ND2        4.8300   16.9850   18.4910 N.am   73  ASN73      -0.0877
     81  N          5.1260   18.0820   14.0920 N.3    76  LEU76      -0.1245
     82  CA         4.5840   19.4030   14.3680 C.3    76  LEU76       0.1561
     83  C          5.3800   20.4880   13.6370 C.2    76  LEU76       0.2260
     84  O          4.8060   21.4390   13.0890 O.2    76  LEU76      -0.2867
     85  CB         4.6010   19.6750   15.8730 C.3    76  LEU76       0.0270
     86  CG         4.0450   21.0320   16.3080 C.3    76  LEU76       0.0019
     87  CD1        2.5870   21.1750   15.8510 C.3    76  LEU76       0.0001
     88  CD2        4.1480   21.1550   17.8150 C.3    76  LEU76       0.0001
@<TRIPOS>BOND
     1    84    83    2
     2    83    82    1
     3    81    82    1
     4    82    85    1
     5    76    75    2
     6    87    86    1
     7    85    86    1
     8    75    74    1
     9    86    88    1
    10    56    57    2
    11    56    55    1
    12    60    58    1
    13    79    78    2
    14    58    55    1
    15    58    59    1
    16    61    59    1
    17    55    54    1
    18    44    45    2
    19    44    43    1
    20    74    77    1
    21    74    73    1
    22    78    77    1
    23    78    80   am
    24    42    43    1
    25    24    25    2
    26    24    23    1
    27    30    28   am
    28    73    64   am
    29    43    46    1
    30    49    51   ar
    31    49    47   ar
    32    46    47    1
    33    26    23    1
    34    26    27    1
    35    62    63    1
    36    22    23    1
    37    51    52   ar
    38    47    48   ar
    39    64    65    2
    40    64    63    1
    41    28    27    1
    42    28    29    2
    43    31    32    1
    44    63    66    1
    45    52    53    1
    46    52    50   ar
    47    48    50   ar
    48    33    34    2
    49    33    32    1
    50    16    15    2
    51    66    67    1
    52    32    35    1
    53    15    14    1
    54    72    70    1
    55    35    36    1
    56    70    69    2
    57    70    71    1
    58    67    68    1
    59    69    68    1
    60     1     2    1
    61    14    17    1
    62    14    13    1
    63    17    18    1
    64    36    37    1
    65     2     3    1
    66    40    39    1
    67     7     8    2
    68     7     6    1
    69    37    38    1
    70    20    19   ar
    71     3     4    2
    72     3     5   am
    73     5     6    1
    74    18    19    1
    75    19    21   ar
    76    39    38    2
    77    39    41    1
    78     6     9    1
    79     9    10    1
    80    10    11    1
    81    12    11    1
