@<TRIPOS>MOLECULE
tmp/1gz5D01.pdb
 161 158 0 0 0
SMALL
GASTEIGER

@<TRIPOS>ATOM
      1  N        -38.2310  -29.2090   26.6980 N.3     8  ASN8       -0.1225
      2  CA       -36.8200  -29.4700   26.5710 C.3     8  ASN8        0.1785
      3  C        -36.2350  -29.7340   27.9300 C.2     8  ASN8        0.2597
      4  O        -35.7300  -30.8110   28.1620 O.2     8  ASN8       -0.2718
      5  CB       -36.1090  -28.3170   25.9000 C.3     8  ASN8        0.1169
      6  CG       -34.6850  -28.6570   25.5760 C.2     8  ASN8        0.2627
      7  OD1      -33.7640  -28.1560   26.2190 O.2     8  ASN8       -0.2716
      8  ND2      -34.4930  -29.5280   24.5940 N.am    8  ASN8       -0.0877
      9  N        -36.3510  -28.7530   28.8300 N.am    9  ARG9       -0.1979
     10  CA       -35.8560  -28.8770   30.2110 C.3     9  ARG9        0.1597
     11  C        -36.8240  -29.6800   31.0690 C.2     9  ARG9        0.2287
     12  O        -38.0460  -29.5130   30.9790 O.2     9  ARG9       -0.2864
     13  CB       -35.6380  -27.4800   30.8460 C.3     9  ARG9        0.0334
     14  CG       -34.8600  -27.4210   32.1930 C.3     9  ARG9        0.0492
     15  CD       -33.4420  -28.0370   32.1380 C.3     9  ARG9        0.2205
     16  NE       -32.5320  -27.2670   31.2840 N.pl3   9  ARG9       -0.0865
     17  CZ       -31.2810  -27.6230   30.9750 C.cat   9  ARG9        0.5346
     18  NH1      -30.7820  -28.7830   31.3820 N.pl3   9  ARG9        0.1354
     19  NH2      -30.5410  -26.8070   30.2360 N.pl3   9  ARG9        0.1354
     20  N        -31.7800  -27.2050   38.0740 N.3    19  SER19      -0.1202
     21  CA       -31.1170  -26.0860   37.4300 C.3    19  SER19       0.2020
     22  C        -32.1070  -24.9360   37.5580 C.2    19  SER19       0.2619
     23  O        -33.3310  -25.1790   37.5090 O.2    19  SER19      -0.2717
     24  CB       -30.9750  -26.4370   35.9550 C.3    19  SER19       0.2103
     25  OG       -29.7950  -25.9000   35.4010 O.3    19  SER19      -0.2182
     26  N        -31.6210  -23.6980   37.6960 N.am   20  ALA20      -0.1965
     27  CA       -32.5100  -22.5130   37.7200 C.3    20  ALA20       0.1728
     28  C        -33.3730  -22.4440   36.4600 C.2    20  ALA20       0.2617
     29  O        -32.9480  -22.8790   35.3720 O.2    20  ALA20      -0.2715
     30  CB       -31.7150  -21.2540   37.8530 C.3    20  ALA20       0.0334
     31  N        -34.5760  -21.8950   36.6050 N.am   21  GLY21      -0.1940
     32  CA       -35.5320  -21.8320   35.5150 C.3    21  GLY21       0.2014
     33  C        -36.9770  -22.1430   35.9230 C.2    21  GLY21       0.2639
     34  O        -37.2510  -23.1220   36.6470 O.2    21  GLY21      -0.2714
     35  N        -37.9060  -21.3070   35.4620 N.am   22  GLY22      -0.1939
     36  CA       -39.2650  -21.3280   35.9790 C.3    22  GLY22       0.2014
     37  C        -40.1350  -22.4140   35.3450 C.2    22  GLY22       0.2639
     38  O        -41.0830  -22.9110   35.9850 O.2    22  GLY22      -0.2714
     39  N        -39.8240  -22.7610   34.0880 N.am   23  LEU23      -0.1963
     40  CA       -40.5870  -23.7650   33.3580 C.3    23  LEU23       0.1728
     41  C        -40.6720  -25.1040   34.1380 C.2    23  LEU23       0.2616
     42  O        -41.7800  -25.6180   34.4280 O.2    23  LEU23      -0.2715
     43  CB       -39.9880  -23.9670   31.9640 C.3    23  LEU23       0.0311
     44  CG       -40.5510  -25.1660   31.1580 C.3    23  LEU23       0.0022
     45  CD1      -40.6200  -24.7670   29.6890 C.3    23  LEU23       0.0001
     46  CD2      -39.6720  -26.4290   31.3230 C.3    23  LEU23       0.0001
     47  N        -39.4980  -25.6330   34.4920 N.am   24  ALA24      -0.1977
     48  CA       -39.4040  -26.9310   35.1350 C.3    24  ALA24       0.1597
     49  C        -40.1080  -26.8700   36.4810 C.2    24  ALA24       0.2287
     50  O        -40.7840  -27.8280   36.8770 O.2    24  ALA24      -0.2864
     51  CB       -37.9270  -27.3470   35.3000 C.3    24  ALA24       0.0319
     52  N        -30.3610  -26.1940   20.3370 N.3    76  TYR76      -0.1241
     53  CA       -30.4500  -25.5670   21.6460 C.3    76  TYR76       0.1605
     54  C        -29.6460  -24.2650   21.7200 C.2    76  TYR76       0.2264
     55  O        -30.2010  -23.1730   21.9060 O.2    76  TYR76      -0.2867
     56  CB       -30.0850  -26.5510   22.7440 C.3    76  TYR76       0.0534
     57  CG       -30.1020  -25.9970   24.1460 C.ar   76  TYR76      -0.0201
     58  CD1      -31.3100  -25.6860   24.7970 C.ar   76  TYR76      -0.0009
     59  CD2      -28.8940  -25.8310   24.8570 C.ar   76  TYR76      -0.0009
     60  CE1      -31.3180  -25.2040   26.1260 C.ar   76  TYR76       0.0417
     61  CE2      -28.8710  -25.3600   26.1550 C.ar   76  TYR76       0.0417
     62  CZ       -30.0990  -25.0350   26.7970 C.ar   76  TYR76       0.1957
     63  OH       -30.0870  -24.5560   28.0880 O.3    76  TYR76      -0.2866
     64  N        -31.6190  -20.6530   21.6920 N.3    81  ASN81      -0.1240
     65  CA       -31.0010  -19.6920   22.6130 C.3    81  ASN81       0.1653
     66  C        -30.4130  -18.4450   21.9190 C.2    81  ASN81       0.2266
     67  O        -30.2220  -17.4100   22.5850 O.2    81  ASN81      -0.2867
     68  CB       -29.9060  -20.3700   23.4640 C.3    81  ASN81       0.1155
     69  CG       -30.4600  -21.4110   24.4440 C.2    81  ASN81       0.2627
     70  OD1      -31.6620  -21.4690   24.6900 O.2    81  ASN81      -0.2716
     71  ND2      -29.5750  -22.2350   25.0050 N.am   81  ASN81      -0.0877
     72  N        -34.9580  -17.0810   21.7150 N.3    85  TRP85      -0.1241
     73  CA       -34.9180  -16.3760   22.9860 C.3    85  TRP85       0.1605
     74  C        -34.6760  -14.8710   22.7880 C.2    85  TRP85       0.2264
     75  O        -35.4600  -14.0710   23.2890 O.2    85  TRP85      -0.2867
     76  CB       -33.9100  -17.0020   23.9800 C.3    85  TRP85       0.0550
     77  CG       -33.8850  -16.2910   25.2690 C.ar   85  TRP85       0.0003
     78  CD1      -33.1160  -15.2210   25.5980 C.ar   85  TRP85       0.0946
     79  CD2      -34.7140  -16.5370   26.4060 C.ar   85  TRP85       0.0152
     80  NE1      -33.3810  -14.7990   26.8780 N.ar   85  TRP85      -0.2442
     81  CE2      -34.3610  -15.5920   27.4020 C.ar   85  TRP85       0.0810
     82  CE3      -35.6860  -17.5030   26.7190 C.ar   85  TRP85       0.0012
     83  CZ2      -34.9590  -15.5750   28.6810 C.ar   85  TRP85       0.0191
     84  CZ3      -36.2690  -17.4740   27.9930 C.ar   85  TRP85       0.0001
     85  CH2      -35.9010  -16.5210   28.9410 C.ar   85  TRP85       0.0015
     86  N        -43.0430  -24.5460   25.4020 N.3   130  ASP130     -0.1225
     87  CA       -41.9990  -23.5470   25.1900 C.3   130  ASP130      0.1805
     88  C        -41.3480  -23.5050   23.8140 C.2   130  ASP130      0.2598
     89  O        -41.5410  -24.3850   22.9610 O.2   130  ASP130     -0.2718
     90  CB       -40.9810  -23.5710   26.3270 C.3   130  ASP130      0.1424
     91  CG       -40.7390  -22.1970   26.9050 C.2   130  ASP130      0.3668
     92  OD1      -41.4160  -21.2100   26.4230 O.co2 130  ASP130     -0.2456
     93  OD2      -39.9080  -21.9920   27.8470 O.co2 130  ASP130     -0.2456
     94  N        -40.5470  -22.4630   23.6250 N.am  131  TYR131     -0.1962
     95  CA       -40.0280  -22.0680   22.3130 C.3   131  TYR131      0.1771
     96  C        -39.1280  -23.0880   21.6540 C.2   131  TYR131      0.2619
     97  O        -38.9400  -23.0360   20.4600 O.2   131  TYR131     -0.2715
     98  CB       -39.2870  -20.7390   22.4410 C.3   131  TYR131      0.0574
     99  CG       -38.2380  -20.7640   23.5090 C.ar  131  TYR131     -0.0198
    100  CD1      -38.5700  -20.5210   24.8470 C.ar  131  TYR131     -0.0009
    101  CD2      -36.9120  -21.0400   23.1890 C.ar  131  TYR131     -0.0009
    102  CE1      -37.6310  -20.5390   25.8350 C.ar  131  TYR131      0.0417
    103  CE2      -35.9310  -21.0530   24.1920 C.ar  131  TYR131      0.0417
    104  CZ       -36.3030  -20.8090   25.5020 C.ar  131  TYR131      0.1957
    105  OH       -35.3820  -20.8350   26.4820 O.3   131  TYR131     -0.2866
    106  N        -38.5960  -24.0380   22.4020 N.am  132  HIS132     -0.1973
    107  CA       -37.8230  -25.1190   21.7550 C.3   132  HIS132      0.1656
    108  C        -38.6670  -25.9730   20.8330 C.2   132  HIS132      0.2291
    109  O        -38.1480  -26.6430   19.9420 O.2   132  HIS132     -0.2864
    110  CB       -37.2040  -26.0390   22.7940 C.3   132  HIS132      0.0771
    111  CG       -36.5500  -25.3070   23.9140 C.ar  132  HIS132      0.0820
    112  ND1      -37.2570  -24.8020   24.9780 N.ar  132  HIS132     -0.2267
    113  CD2      -35.2670  -24.9510   24.1120 C.ar  132  HIS132      0.1154
    114  CE1      -36.4310  -24.2080   25.8120 C.ar  132  HIS132      0.1986
    115  NE2      -35.2160  -24.2770   25.2990 N.ar  132  HIS132     -0.2212
    116  N        -43.9320  -20.0870   27.4540 N.3   154  HIS154     -0.1226
    117  CA       -43.5680  -19.5880   28.7690 C.3   154  HIS154      0.1752
    118  C        -42.9590  -18.1890   28.7050 C.2   154  HIS154      0.2595
    119  O        -42.8170  -17.5140   29.7370 O.2   154  HIS154     -0.2718
    120  CB       -42.5850  -20.5520   29.4170 C.3   154  HIS154      0.0759
    121  CG       -43.2040  -21.8480   29.8160 C.ar  154  HIS154      0.0818
    122  ND1      -43.3810  -22.2080   31.1310 N.ar  154  HIS154     -0.2268
    123  CD2      -43.7130  -22.8640   29.0760 C.ar  154  HIS154      0.1154
    124  CE1      -43.9740  -23.3840   31.1980 C.ar  154  HIS154      0.1986
    125  NE2      -44.1690  -23.8130   29.9610 N.ar  154  HIS154     -0.2212
    126  N        -42.6060  -17.7470   27.5030 N.am  155  ILE155     -0.1980
    127  CA       -41.9130  -16.4890   27.3230 C.3   155  ILE155      0.1595
    128  C        -42.8150  -15.5580   26.5250 C.2   155  ILE155      0.2287
    129  O        -43.8420  -16.0190   26.0700 O.2   155  ILE155     -0.2864
    130  CB       -40.5600  -16.6960   26.6140 C.3   155  ILE155      0.0276
    131  CG1      -40.7520  -17.1710   25.1590 C.3   155  ILE155      0.0022
    132  CG2      -39.6540  -17.6280   27.4450 C.3   155  ILE155      0.0022
    133  CD1      -39.4240  -17.2820   24.4000 C.3   155  ILE155      0.0001
    134  N        -31.4900  -16.1070   36.8080 N.3   261  ARG261     -0.1245
    135  CA       -30.4770  -16.5180   35.8600 C.3   261  ARG261      0.1563
    136  C        -29.8090  -15.2510   35.3190 C.2   261  ARG261      0.2260
    137  O        -30.4590  -14.2010   35.1350 O.2   261  ARG261     -0.2867
    138  CB       -31.0910  -17.3100   34.7200 C.3   261  ARG261      0.0307
    139  CG       -31.6050  -18.6990   35.0560 C.3   261  ARG261      0.0489
    140  CD       -32.3210  -19.3730   33.8840 C.3   261  ARG261      0.2205
    141  NE       -33.3150  -18.4660   33.3150 N.pl3 261  ARG261     -0.0865
    142  CZ       -33.1680  -17.7600   32.1740 C.cat 261  ARG261      0.5346
    143  NH1      -32.0740  -17.8920   31.4090 N.pl3 261  ARG261      0.1354
    144  NH2      -34.1390  -16.9280   31.7860 N.pl3 261  ARG261      0.1354
    145  N        -26.2210  -18.8160   33.1600 N.3   298  SER298     -0.1202
    146  CA       -27.1750  -19.5660   32.3520 C.3   298  SER298      0.2020
    147  C        -26.6860  -19.5250   30.8990 C.2   298  SER298      0.2618
    148  O        -26.2830  -18.4450   30.4250 O.2   298  SER298     -0.2717
    149  CB       -28.5210  -18.8470   32.4590 C.3   298  SER298      0.2103
    150  OG       -29.5090  -19.4830   31.6550 O.3   298  SER298     -0.2182
    151  N        -26.7250  -20.6700   30.2040 N.am  299  ARG299     -0.1979
    152  CA       -26.4930  -20.6980   28.7460 C.3   299  ARG299      0.1597
    153  C        -25.1390  -20.0390   28.4320 C.2   299  ARG299      0.2287
    154  O        -25.0220  -19.2210   27.5120 O.2   299  ARG299     -0.2864
    155  CB       -27.6060  -19.9560   28.0290 C.3   299  ARG299      0.0334
    156  CG       -28.9740  -20.5980   28.2230 C.3   299  ARG299      0.0492
    157  CD       -30.1440  -19.7400   27.7880 C.3   299  ARG299      0.2205
    158  NE       -31.3650  -20.2300   28.3520 N.pl3 299  ARG299     -0.0865
    159  CZ       -32.5180  -19.5680   28.2980 C.cat 299  ARG299      0.5346
    160  NH1      -32.5730  -18.3880   27.6750 N.pl3 299  ARG299      0.1354
    161  NH2      -33.6010  -20.0550   28.9130 N.pl3 299  ARG299      0.1354
@<TRIPOS>BOND
     1   109   108    2
     2    52    53    1
     3    97    96    2
     4   108   107    1
     5    53    54    1
     6    53    56    1
     7    96    95    1
     8    96   106   am
     9    64    65    1
    10    72    73    1
    11    54    55    2
    12   107   106    1
    13   107   110    1
    14    66    67    2
    15    66    65    1
    16    95    98    1
    17    95    94    1
    18    98    99    1
    19    65    68    1
    20    56    57    1
    21    74    73    1
    22    74    75    2
    23   110   111    1
    24    89    88    2
    25    73    76    1
    26   101    99   ar
    27   101   103   ar
    28    68    69    1
    29    99   100   ar
    30    94    88   am
    31    88    87    1
    32   111   113   ar
    33   111   112   ar
    34    76    77    1
    35   113   115   ar
    36    57    58   ar
    37    57    59   ar
    38   103   104   ar
    39   133   131    1
    40    69    70    2
    41    69    71   am
    42     8     6   am
    43    58    60   ar
    44   100   102   ar
    45    59    61   ar
    46   112   114   ar
    47   131   130    1
    48    87    86    1
    49    87    90    1
    50    77    78   ar
    51    77    79   ar
    52   115   114   ar
    53   104   102   ar
    54   104   105    1
    55     6     5    1
    56     6     7    2
    57    78    80   ar
    58     5     2    1
    59   129   128    2
    60    60    62   ar
    61    61    62   ar
    62    90    91    1
    63    79    82   ar
    64    79    81   ar
    65    92    91   ar
    66   128   127    1
    67     2     1    1
    68     2     3    1
    69   130   127    1
    70   130   132    1
    71    82    84   ar
    72    62    63    1
    73    80    81   ar
    74    91    93   ar
    75   127   126    1
    76    81    83   ar
    77   116   117    1
    78   126   118   am
    79   154   153    2
    80   160   159    1
    81   157   156    1
    82   157   158    1
    83     3     4    2
    84     3     9   am
    85    84    85   ar
    86   155   156    1
    87   155   152    1
    88   159   158    2
    89   159   161    1
    90   153   152    1
    91    83    85   ar
    92   118   117    1
    93   118   119    2
    94   152   151    1
    95   117   120    1
    96     9    10    1
    97   123   121   ar
    98   123   125   ar
    99   120   121    1
   100    45    44    1
   101   121   122   ar
   102   125   124   ar
   103   151   147   am
   104    10    13    1
   105    10    11    1
   106    19    17    1
   107   148   147    2
   108    13    14    1
   109   147   146    1
   110    17    16    2
   111    17    18    1
   112    12    11    2
   113   122   124   ar
   114    44    46    1
   115    44    43    1
   116    16    15    1
   117   143   142    1
   118   150   149    1
   119   144   142    1
   120    43    40    1
   121    15    14    1
   122   142   141    2
   123   146   149    1
   124   146   145    1
   125   141   140    1
   126    40    39    1
   127    40    41    1
   128   140   139    1
   129    39    37   am
   130    41    42    2
   131    41    47   am
   132    47    48    1
   133   138   139    1
   134   138   135    1
   135    48    51    1
   136    48    49    1
   137   137   136    2
   138   136   135    1
   139    37    36    1
   140    37    38    2
   141    29    28    2
   142    25    24    1
   143    35    33   am
   144    35    36    1
   145    32    33    1
   146    32    31    1
   147   135   134    1
   148    33    34    2
   149    24    21    1
   150    28    31   am
   151    28    27    1
   152    49    50    2
   153    21    22    1
   154    21    20    1
   155    23    22    2
   156    22    26   am
   157    26    27    1
   158    27    30    1
