@<TRIPOS>MOLECULE
tmp/1gz8A00.pdb
 158 151 0 0 0
SMALL
GASTEIGER

@<TRIPOS>ATOM
      1  N         -0.5750   22.9350    2.5840 N.3    10  ILE10      -0.1231
      2  CA         0.4290   23.2250    3.5890 C.3    10  ILE10       0.1692
      3  C          0.3650   22.1890    4.6830 C.2    10  ILE10       0.2593
      4  O          1.3800   21.7920    5.2160 O.2    10  ILE10      -0.2718
      5  CB         0.1890   24.6380    4.1990 C.3    10  ILE10       0.0266
      6  CG1        0.6890   25.7030    3.2600 C.3    10  ILE10       0.0019
      7  CG2        0.9190   24.7880    5.5280 C.3    10  ILE10       0.0020
      8  CD1        0.3620   27.0490    3.6630 C.3    10  ILE10       0.0001
      9  N         -0.8510   21.8200    5.0640 N.am   11  GLY11      -0.1942
     10  CA        -1.0490   20.8570    6.1180 C.3    11  GLY11       0.2014
     11  C         -2.4640   20.8810    6.6350 C.2    11  GLY11       0.2639
     12  O         -3.3860   21.4450    6.0320 O.2    11  GLY11      -0.2714
     13  N         -2.6310   20.1870    7.7590 N.am   12  GLU12      -0.1963
     14  CA        -3.9160   20.1320    8.4290 C.3    12  GLU12       0.1733
     15  C         -3.8430   20.9510    9.6890 C.2    12  GLU12       0.2616
     16  O         -3.0690   20.6860   10.5950 O.2    12  GLU12      -0.2715
     17  CB        -4.2380   18.6710    8.6950 C.3    12  GLU12       0.0429
     18  CG        -3.6540   17.8680    7.5580 C.3    12  GLU12       0.1163
     19  CD        -4.6210   16.9780    6.8350 C.2    12  GLU12       0.3649
     20  OE1       -4.4750   15.7510    7.0110 O.co2  12  GLU12      -0.2457
     21  OE2       -5.4530   17.4800    6.0350 O.co2  12  GLU12      -0.2457
     22  N         -4.6080   22.0340    9.7350 N.am   13  GLY13      -0.1955
     23  CA        -4.6340   22.9000   10.8850 C.3    13  GLY13       0.1869
     24  C         -5.5670   22.4510   11.9740 C.2    13  GLY13       0.2309
     25  O         -6.1830   21.3970   11.8770 O.2    13  GLY13      -0.2863
     26  N         -5.2280   23.5560    5.4120 N.3    18  VAL18      -0.1245
     27  CA        -4.5580   24.8050    5.1200 C.3    18  VAL18       0.1561
     28  C         -3.8230   24.6950    3.7810 C.2    18  VAL18       0.2260
     29  O         -3.1100   23.7270    3.5290 O.2    18  VAL18      -0.2867
     30  CB        -3.5500   25.1540    6.1860 C.3    18  VAL18       0.0252
     31  CG1       -2.8790   26.4830    5.8340 C.3    18  VAL18       0.0019
     32  CG2       -4.2300   25.2470    7.5490 C.3    18  VAL18       0.0019
     33  N         -2.0000   32.1780    2.7480 N.3    31  ALA31      -0.1245
     34  CA        -2.4150   30.9460    3.3710 C.3    31  ALA31       0.1562
     35  C         -3.9340   30.9880    3.5050 C.2    31  ALA31       0.2260
     36  O         -4.4770   31.9010    4.0770 O.2    31  ALA31      -0.2867
     37  CB        -1.7520   30.7700    4.7220 C.3    31  ALA31       0.0290
     38  N         -7.0910   29.1000    5.1630 N.3    33  LYS33      -0.1245
     39  CA        -7.4270   28.1980    6.2510 C.3    33  LYS33       0.1561
     40  C         -8.9050   27.9610    6.2960 C.2    33  LYS33       0.2260
     41  O         -9.6610   28.8470    6.6110 O.2    33  LYS33      -0.2867
     42  CB        -6.9320   28.7510    7.5600 C.3    33  LYS33       0.0271
     43  CG        -5.4920   29.0630    7.5400 C.3    33  LYS33       0.0035
     44  CD        -4.9550   29.2140    8.9760 C.3    33  LYS33       0.0206
     45  CE        -3.7290   28.4370    9.2240 C.3    33  LYS33       0.1093
     46  NZ        -2.9480   28.8940   10.4060 N.3    33  LYS33      -0.1314
     47  N          0.5720   37.5190   12.4660 N.3    57  VAL57      -0.1245
     48  CA         0.3230   37.1680   11.0810 C.3    57  VAL57       0.1561
     49  C         -0.9570   37.8600   10.6180 C.2    57  VAL57       0.2260
     50  O         -1.9910   37.7750   11.2770 O.2    57  VAL57      -0.2867
     51  CB         0.2050   35.6470   10.9230 C.3    57  VAL57       0.0252
     52  CG1       -0.1270   35.3000    9.4740 C.3    57  VAL57       0.0019
     53  CG2        1.4640   34.9660   11.3340 C.3    57  VAL57       0.0019
     54  N         -4.8610   34.4640    5.1800 N.3    73  PHE73      -0.1227
     55  CA        -3.7800   35.0080    5.9700 C.3    73  PHE73       0.1736
     56  C         -2.5490   35.3080    5.1750 C.2    73  PHE73       0.2595
     57  O         -2.2860   34.6700    4.1740 O.2    73  PHE73      -0.2718
     58  CB        -3.3690   34.0310    7.0790 C.3    73  PHE73       0.0547
     59  CG        -4.2780   34.0040    8.2580 C.ar   73  PHE73      -0.0202
     60  CD1       -5.1820   32.9910    8.4350 C.ar   73  PHE73      -0.0042
     61  CD2       -4.1840   34.9700    9.2470 C.ar   73  PHE73      -0.0042
     62  CE1       -5.9880   32.9600    9.5470 C.ar   73  PHE73      -0.0003
     63  CE2       -4.9730   34.9220   10.3520 C.ar   73  PHE73      -0.0003
     64  CZ        -5.8880   33.9150   10.4700 C.ar   73  PHE73      -0.0000
     65  N         -1.7570   36.2470    5.6770 N.am   74  GLU74      -0.1965
     66  CA        -0.3910   36.4070    5.2050 C.3    74  GLU74       0.1733
     67  C          0.3050   35.0520    5.2710 C.2    74  GLU74       0.2616
     68  O          0.1850   34.3380    6.2690 O.2    74  GLU74      -0.2715
     69  CB         0.2960   37.4110    6.1560 C.3    74  GLU74       0.0429
     70  CG         1.7710   37.6020    6.0250 C.3    74  GLU74       0.1163
     71  CD         2.3740   38.4380    7.1660 C.2    74  GLU74       0.3649
     72  OE1        3.5800   38.7510    7.0180 O.co2  74  GLU74      -0.2457
     73  OE2        1.6700   38.7620    8.1330 O.co2  74  GLU74      -0.2457
     74  N          1.0920   34.7670    4.2440 N.am   75  PHE75      -0.1960
     75  CA         1.8540   33.5530    4.1090 C.3    75  PHE75       0.1771
     76  C          3.2810   33.7920    4.5840 C.2    75  PHE75       0.2619
     77  O          3.9030   34.7960    4.1850 O.2    75  PHE75      -0.2715
     78  CB         1.8620   33.0750    2.6510 C.3    75  PHE75       0.0574
     79  CG         2.7280   31.8820    2.4220 C.ar   75  PHE75      -0.0200
     80  CD1        2.2290   30.5980    2.5720 C.ar   75  PHE75      -0.0042
     81  CD2        4.0340   32.0100    2.0390 C.ar   75  PHE75      -0.0042
     82  CE1        3.0350   29.4960    2.3960 C.ar   75  PHE75      -0.0003
     83  CE2        4.8090   30.8990    1.8710 C.ar   75  PHE75      -0.0003
     84  CZ         4.2960   29.6410    2.0470 C.ar   75  PHE75      -0.0000
     85  N          3.7600   32.8990    5.4350 N.am   76  LEU76      -0.1963
     86  CA         5.1800   32.8860    5.7620 C.3    76  LEU76       0.1728
     87  C          5.7630   31.5240    5.4100 C.2    76  LEU76       0.2616
     88  O          5.0550   30.5320    5.4210 O.2    76  LEU76      -0.2715
     89  CB         5.4160   33.1790    7.2220 C.3    76  LEU76       0.0311
     90  CG         5.2770   34.6720    7.5850 C.3    76  LEU76       0.0022
     91  CD1        3.8430   34.9440    7.8890 C.3    76  LEU76       0.0001
     92  CD2        6.1970   35.0810    8.7160 C.3    76  LEU76       0.0001
     93  N          7.0740   31.4850    5.1710 N.am   77  HIS77      -0.1959
     94  CA         7.6750   30.2880    4.5910 C.3    77  HIS77       0.1787
     95  C          8.0670   29.1770    5.5580 C.2    77  HIS77       0.2620
     96  O          8.3330   28.0920    5.0870 O.2    77  HIS77      -0.2715
     97  CB         8.8940   30.6690    3.7260 C.3    77  HIS77       0.0785
     98  CG         8.5080   31.2790    2.4250 C.ar   77  HIS77       0.0821
     99  ND1        8.2190   32.6190    2.2740 N.ar   77  HIS77      -0.2267
    100  CD2        8.3280   30.7070    1.2080 C.ar   77  HIS77       0.1154
    101  CE1        7.8570   32.8270    1.0160 C.ar   77  HIS77       0.1986
    102  NE2        7.9690   31.7060    0.3380 N.ar   77  HIS77      -0.2212
    103  N          8.1870   29.4360    6.8350 N.am   78  GLN78      -0.1963
    104  CA         8.5990   28.4320    7.7910 C.3    78  GLN78       0.1733
    105  C          7.9810   28.6510    9.1410 C.2    78  GLN78       0.2616
    106  O          7.5870   29.7380    9.4390 O.2    78  GLN78      -0.2715
    107  CB        10.1310   28.5170    7.8830 C.3    78  GLN78       0.0408
    108  CG        10.8150   27.6910    8.9080 C.3    78  GLN78       0.0908
    109  CD        10.7800   26.2730    8.6340 C.2    78  GLN78       0.2608
    110  OE1        9.7050   25.6870    8.5230 O.2    78  GLN78      -0.2717
    111  NE2       11.9800   25.6430    8.5990 N.am   78  GLN78      -0.0878
    112  N          7.8340   27.5950    9.9190 N.am   79  ASP79      -0.1971
    113  CA         7.3810   27.6810   11.2870 C.3    79  ASP79       0.1709
    114  C          8.5030   27.3480   12.2640 C.2    79  ASP79       0.2293
    115  O          9.5290   26.7540   11.8840 O.2    79  ASP79      -0.2864
    116  CB         6.1280   26.8400   11.5620 C.3    79  ASP79       0.1436
    117  CG         6.3410   25.3960   11.3980 C.2    79  ASP79       0.3671
    118  OD1        7.0230   24.8190   12.2090 O.co2  79  ASP79      -0.2456
    119  OD2        5.8840   24.8070   10.4100 O.co2  79  ASP79      -0.2456
    120  N          9.4720   23.4940   12.6820 N.3    82  LYS82      -0.1245
    121  CA        10.4030   23.0360   11.6760 C.3    82  LYS82       0.1561
    122  C         11.7710   23.6250   11.8450 C.2    82  LYS82       0.2260
    123  O         12.7670   22.9060   11.6960 O.2    82  LYS82      -0.2867
    124  CB         9.8400   23.2100   10.2720 C.3    82  LYS82       0.0271
    125  CG         8.6030   22.3440   10.0470 C.3    82  LYS82       0.0035
    126  CD         7.9350   22.6610    8.6700 C.3    82  LYS82       0.0206
    127  CE         6.4450   22.3430    8.6950 C.3    82  LYS82       0.1093
    128  NZ         5.6320   23.2520    7.8250 N.3    82  LYS82      -0.1314
    129  N          4.3110   25.3990   16.1670 N.3   124  GLN124     -0.1245
    130  CA         3.6970   25.3380   14.8550 C.3   124  GLN124      0.1566
    131  C          2.9620   26.5880   14.4210 C.2   124  GLN124      0.2260
    132  O          2.7320   26.7780   13.2470 O.2   124  GLN124     -0.2867
    133  CB         2.8140   24.1060   14.7630 C.3   124  GLN124      0.0367
    134  CG         3.4820   22.8060   14.4390 C.3   124  GLN124      0.0905
    135  CD         2.4720   21.8630   13.7870 C.2   124  GLN124      0.2608
    136  OE1        1.2290   22.0590   13.9360 O.2   124  GLN124     -0.2717
    137  NE2        2.9660   20.8440   13.0670 N.am  124  GLN124     -0.0878
    138  N          5.4750   31.7050   13.1470 N.3   127  LEU127     -0.1245
    139  CA         5.9640   31.6580   11.7970 C.3   127  LEU127      0.1561
    140  C          7.1130   32.6210   11.5730 C.2   127  LEU127      0.2260
    141  O          7.1250   33.7120   12.1590 O.2   127  LEU127     -0.2867
    142  CB         4.8240   31.9450   10.8230 C.3   127  LEU127      0.0270
    143  CG         3.5790   31.0860   10.9880 C.3   127  LEU127      0.0019
    144  CD1        2.6170   31.4630    9.8930 C.3   127  LEU127      0.0001
    145  CD2        3.8620   29.6000   10.9980 C.3   127  LEU127      0.0001
    146  N          0.6060   33.2240   14.5620 N.3   137  ALA137     -0.1231
    147  CA        -0.4990   32.8270   13.6990 C.3   137  ALA137      0.1694
    148  C         -1.6590   32.3530   14.5600 C.2   137  ALA137      0.2592
    149  O         -1.4540   31.8730   15.6580 O.2   137  ALA137     -0.2718
    150  CB        -0.0850   31.7190   12.7960 C.3   137  ALA137      0.0304
    151  N         -2.8620   32.4960   14.0300 N.am  138  ASP138     -0.1974
    152  CA        -4.0760   32.0150   14.6640 C.3   138  ASP138      0.1709
    153  C         -4.4910   32.7290   15.9090 C.2   138  ASP138      0.2293
    154  O         -5.2630   32.2130   16.7210 O.2   138  ASP138     -0.2864
    155  CB        -4.0350   30.4840   14.8640 C.3   138  ASP138      0.1436
    156  CG        -4.0340   29.7240   13.5690 C.2   138  ASP138      0.3671
    157  OD1       -4.1050   30.2980   12.4440 O.co2 138  ASP138     -0.2456
    158  OD2       -3.9570   28.4860   13.6270 O.co2 138  ASP138     -0.2456
@<TRIPOS>BOND
     1   102   101   ar
     2   102   100   ar
     3   101    99   ar
     4   100    98   ar
     5    83    81   ar
     6    83    84   ar
     7    81    79   ar
     8    84    82   ar
     9    99    98   ar
    10    82    80   ar
    11    79    80   ar
    12    79    78    1
    13    98    97    1
    14     1     2    1
    15    78    75    1
    16    33    34    1
    17     6     8    1
    18     6     5    1
    19    34    35    1
    20    34    37    1
    21    35    36    2
    22    29    28    2
    23     2     5    1
    24     2     3    1
    25    97    94    1
    26    28    27    1
    27    75    74    1
    28    75    76    1
    29    57    56    2
    30    77    76    2
    31     5     7    1
    32    74    67   am
    33    76    85   am
    34    94    93    1
    35    94    95    1
    36     3     9   am
    37     3     4    2
    38     9    10    1
    39    96    95    2
    40    27    26    1
    41    27    30    1
    42    38    39    1
    43    93    87   am
    44    56    65   am
    45    56    55    1
    46    54    55    1
    47    66    67    1
    48    66    65    1
    49    66    69    1
    50    67    68    2
    51    87    88    2
    52    87    86    1
    53    85    86    1
    54    95   103   am
    55    86    89    1
    56    31    30    1
    57    55    58    1
    58    70    69    1
    59    70    71    1
    60    12    11    2
    61    21    19   ar
    62    10    11    1
    63    30    32    1
    64    39    40    1
    65    39    42    1
    66    40    41    2
    67    11    13   am
    68   103   104    1
    69    19    20   ar
    70    19    18    1
    71    72    71   ar
    72    58    59    1
    73    71    73   ar
    74    89    90    1
    75    43    42    1
    76    43    44    1
    77    18    17    1
    78    90    91    1
    79    90    92    1
    80    13    14    1
    81   104   107    1
    82   104   105    1
    83   128   127    1
    84   107   108    1
    85    59    60   ar
    86    59    61   ar
    87    14    17    1
    88    14    15    1
    89    60    62   ar
    90   110   109    2
    91   111   109   am
    92   109   108    1
    93   126   127    1
    94   126   125    1
    95    44    45    1
    96   105   106    2
    97   105   112   am
    98    45    46    1
    99    61    63   ar
   100    52    51    1
   101    62    64   ar
   102    15    22   am
   103    15    16    2
   104    22    23    1
   105   144   143    1
   106   112   113    1
   107   125   124    1
   108   124   121    1
   109    63    64   ar
   110   119   117   ar
   111    49    48    1
   112    49    50    2
   113   142   143    1
   114   142   139    1
   115    23    24    1
   116    51    48    1
   117    51    53    1
   118   143   145    1
   119    48    47    1
   120   113   116    1
   121   113   114    1
   122   117   116    1
   123   117   118   ar
   124   140   139    1
   125   140   141    2
   126   121   122    1
   127   121   120    1
   128   123   122    2
   129   139   138    1
   130    25    24    2
   131   115   114    2
   132   157   156   ar
   133   150   147    1
   134   137   135   am
   135   132   131    2
   136   156   158   ar
   137   156   155    1
   138   147   148    1
   139   147   146    1
   140   135   136    2
   141   135   134    1
   142   151   148   am
   143   151   152    1
   144   131   130    1
   145   134   133    1
   146   148   149    2
   147   152   155    1
   148   152   153    1
   149   133   130    1
   150   130   129    1
   151   153   154    2
