@<TRIPOS>MOLECULE
tmp/1gz9A00.pdb
 119 119 0 0 0
SMALL
GASTEIGER

@<TRIPOS>ATOM
      1  N         74.7700   49.7830   27.3120 N.3    85  PRO85      -0.2102
      2  CA        75.4000   48.7530   26.4720 C.3    85  PRO85       0.1504
      3  C         74.6040   47.4320   26.5870 C.2    85  PRO85       0.2575
      4  O         73.4310   47.4510   26.9840 O.2    85  PRO85      -0.2718
      5  CB        76.7770   48.6280   27.0790 C.3    85  PRO85       0.0282
      6  CG        76.5030   48.8510   28.5470 C.3    85  PRO85       0.0208
      7  CD        75.5550   50.0080   28.5420 C.3    85  PRO85       0.0893
      8  N         75.2250   46.3150   26.2030 N.am   86  LEU86      -0.1980
      9  CA        74.5500   44.9990   26.2880 C.3    86  LEU86       0.1596
     10  C         74.2920   44.6950   27.7740 C.2    86  LEU86       0.2287
     11  O         75.1150   45.0180   28.6280 O.2    86  LEU86      -0.2864
     12  CB        75.4640   43.9130   25.7350 C.3    86  LEU86       0.0297
     13  CG        75.6840   43.9370   24.2150 C.3    86  LEU86       0.0022
     14  CD1       76.6730   42.8110   23.8540 C.3    86  LEU86       0.0001
     15  CD2       74.3570   43.7860   23.4730 C.3    86  LEU86       0.0001
     16  N         73.8890   42.4490   31.3220 N.3    88  ALA88      -0.1231
     17  CA        74.7430   41.3810   31.8950 C.3    88  ALA88       0.1694
     18  C         74.3810   41.3130   33.3790 C.2    88  ALA88       0.2592
     19  O         73.7780   42.2600   33.8880 O.2    88  ALA88      -0.2718
     20  CB        76.2090   41.7410   31.7400 C.3    88  ALA88       0.0304
     21  N         74.6800   40.2160   34.0880 N.am   89  ASP89      -0.1974
     22  CA        75.3440   39.0090   33.5850 C.3    89  ASP89       0.1709
     23  C         74.4500   37.7450   33.7250 C.2    89  ASP89       0.2293
     24  O         74.6310   36.7760   32.9610 O.2    89  ASP89      -0.2864
     25  CB        76.6450   38.7770   34.3410 C.3    89  ASP89       0.1436
     26  CG        77.8680   39.3550   33.6170 C.2    89  ASP89       0.3671
     27  OD1       78.3040   38.7660   32.5930 O.co2  89  ASP89      -0.2456
     28  OD2       78.4100   40.3920   34.0880 O.co2  89  ASP89      -0.2456
     29  N         80.4460   39.3740   37.7760 N.3   106  TYR106     -0.1227
     30  CA        80.3180   39.4950   36.3390 C.3   106  TYR106      0.1736
     31  C         79.9120   38.1500   35.7540 C.2   106  TYR106      0.2596
     32  O         79.0390   37.4770   36.3150 O.2   106  TYR106     -0.2718
     33  CB        81.6370   39.9710   35.7310 C.3   106  TYR106      0.0548
     34  CG        82.1570   41.1600   36.4920 C.ar  106  TYR106     -0.0200
     35  CD1       81.3150   42.2400   36.7760 C.ar  106  TYR106     -0.0009
     36  CD2       83.5020   41.2430   36.8500 C.ar  106  TYR106     -0.0009
     37  CE1       81.8050   43.3880   37.4020 C.ar  106  TYR106      0.0417
     38  CE2       84.0090   42.3980   37.4760 C.ar  106  TYR106      0.0417
     39  CZ        83.1580   43.4570   37.7420 C.ar  106  TYR106      0.1957
     40  OH        83.6690   44.6060   38.3360 O.3   106  TYR106     -0.2866
     41  N         80.5640   37.7540   34.6600 N.am  107  GLY107     -0.1942
     42  CA        80.2010   36.5050   33.9940 C.3   107  GLY107      0.2014
     43  C         80.4380   35.2350   34.8170 C.2   107  GLY107      0.2638
     44  O         79.9970   34.1430   34.4240 O.2   107  GLY107     -0.2714
     45  N         81.1020   35.3600   35.9630 N.am  108  TYR108     -0.1973
     46  CA        81.3530   34.1900   36.8040 C.3   108  TYR108      0.1639
     47  C         80.2050   33.9480   37.7690 C.2   108  TYR108      0.2290
     48  O         80.2020   32.9630   38.5340 O.2   108  TYR108     -0.2864
     49  CB        82.6660   34.3410   37.5520 C.3   108  TYR108      0.0560
     50  CG        83.8140   34.6050   36.5840 C.ar  108  TYR108     -0.0198
     51  CD1       84.3440   33.5770   35.8040 C.ar  108  TYR108     -0.0009
     52  CD2       84.3130   35.9110   36.3920 C.ar  108  TYR108     -0.0009
     53  CE1       85.3400   33.8280   34.8490 C.ar  108  TYR108      0.0417
     54  CE2       85.3100   36.1730   35.4410 C.ar  108  TYR108      0.0417
     55  CZ        85.8140   35.1200   34.6760 C.ar  108  TYR108      0.1957
     56  OH        86.7470   35.3760   33.6970 O.3   108  TYR108     -0.2866
     57  N         74.6860   37.3390   29.1460 N.3   131  PHE131     -0.1241
     58  CA        75.7670   38.0160   28.4040 C.3   131  PHE131      0.1605
     59  C         76.7040   36.9770   27.8530 C.2   131  PHE131      0.2264
     60  O         77.1910   36.1280   28.6130 O.2   131  PHE131     -0.2867
     61  CB        76.5490   38.9470   29.3370 C.3   131  PHE131      0.0534
     62  CG        77.7060   39.6670   28.6450 C.ar  131  PHE131     -0.0203
     63  CD1       77.5220   40.8980   28.0370 C.ar  131  PHE131     -0.0042
     64  CD2       78.9660   39.0600   28.5750 C.ar  131  PHE131     -0.0042
     65  CE1       78.5900   41.5380   27.3590 C.ar  131  PHE131     -0.0003
     66  CE2       80.0370   39.6870   27.8950 C.ar  131  PHE131     -0.0003
     67  CZ        79.8460   40.9210   27.2920 C.ar  131  PHE131     -0.0000
     68  N         79.9510   35.6850   27.1230 N.3   133  ASN133     -0.1226
     69  CA        81.3870   35.8130   27.4480 C.3   133  ASN133      0.1770
     70  C         82.2170   34.9740   26.4350 C.2   133  ASN133      0.2439
     71  O         81.6730   34.2030   25.6620 O.2   133  ASN133     -0.2733
     72  CB        81.6310   35.2600   28.8600 C.3   133  ASN133      0.1168
     73  CG        81.0220   36.1520   29.9250 C.2   133  ASN133      0.2627
     74  OD1       79.8580   35.9780   30.3180 O.2   133  ASN133     -0.2716
     75  ND2       81.7910   37.1590   30.3570 N.am  133  ASN133     -0.0877
     76  N         83.5470   35.0740   26.4890 N.am  134  PRO134     -0.2718
     77  CA        84.4020   34.3080   25.5630 C.3   134  PRO134      0.1535
     78  C         84.2220   32.7780   25.5950 C.2   134  PRO134      0.2598
     79  O         84.5800   32.0940   24.6250 O.2   134  PRO134     -0.2715
     80  CB        85.8270   34.7260   25.9770 C.3   134  PRO134      0.0310
     81  CG        85.6190   36.1610   26.4700 C.3   134  PRO134      0.0237
     82  CD        84.3430   36.0300   27.2930 C.3   134  PRO134      0.0939
     83  N         83.6640   32.2400   26.6890 N.am  135  TRP135     -0.1974
     84  CA        83.4620   30.8080   26.8510 C.3   135  TRP135      0.1640
     85  C         82.0040   30.3960   26.6120 C.2   135  TRP135      0.2290
     86  O         81.6560   29.2040   26.7470 O.2   135  TRP135     -0.2864
     87  CB        83.8060   30.3820   28.2940 C.3   135  TRP135      0.0576
     88  CG        82.9900   31.1800   29.3390 C.ar  135  TRP135      0.0006
     89  CD1       81.6800   30.9510   29.7290 C.ar  135  TRP135      0.0946
     90  CD2       83.4280   32.3260   30.0670 C.ar  135  TRP135      0.0152
     91  NE1       81.2840   31.9010   30.6610 N.ar  135  TRP135     -0.2442
     92  CE2       82.3430   32.7530   30.8860 C.ar  135  TRP135      0.0810
     93  CE3       84.6420   33.0470   30.1150 C.ar  135  TRP135      0.0012
     94  CZ2       82.4370   33.8560   31.7410 C.ar  135  TRP135      0.0191
     95  CZ3       84.7340   34.1450   30.9610 C.ar  135  TRP135      0.0001
     96  CH2       83.6240   34.5400   31.7750 C.ar  135  TRP135      0.0015
     97  N         76.9430   43.6340   35.3120 N.3   217  GLY217     -0.1210
     98  CA        78.2080   43.7760   34.6060 C.3   217  GLY217      0.1956
     99  C         79.3610   44.6560   35.0150 C.2   217  GLY217      0.2612
    100  O         79.2540   45.4170   35.9600 O.2   217  GLY217     -0.2717
    101  N         80.4460   44.5420   34.2510 N.am  218  ALA218     -0.1965
    102  CA        81.6900   45.2350   34.5610 C.3   218  ALA218      0.1728
    103  C         81.8590   46.6210   33.9860 C.2   218  ALA218      0.2616
    104  O         82.9490   47.1770   34.0700 O.2   218  ALA218     -0.2715
    105  CB        82.8960   44.3580   34.1780 C.3   218  ALA218      0.0334
    106  N         80.8090   47.1800   33.4020 N.am  219  GLN219     -0.1977
    107  CA        80.9150   48.5420   32.9110 C.3   219  GLN219      0.1601
    108  C         79.5680   49.1860   33.1080 C.2   219  GLN219      0.2287
    109  O         78.5520   48.4970   33.2700 O.2   219  GLN219     -0.2864
    110  CB        81.3360   48.5960   31.4300 C.3   219  GLN219      0.0394
    111  CG        80.3040   48.0900   30.4610 C.3   219  GLN219      0.0908
    112  CD        80.7270   48.2770   29.0000 C.2   219  GLN219      0.2608
    113  OE1       80.1730   49.1150   28.2920 O.2   219  GLN219     -0.2717
    114  NE2       81.7050   47.5000   28.5560 N.am  219  GLN219     -0.0878
    115  N         75.6830   47.9850   32.1530 N.3   222  ALA222     -0.1245
    116  CA        75.6800   46.6140   31.5800 C.3   222  ALA222      0.1562
    117  C         74.9780   45.9460   32.7720 C.2   222  ALA222      0.2260
    118  O         75.6310   45.3630   33.6350 O.2   222  ALA222     -0.2867
    119  CB        77.1270   46.0790   31.4330 C.3   222  ALA222      0.0290
@<TRIPOS>BOND
     1    15    13    1
     2    14    13    1
     3    13    12    1
     4    79    78    2
     5    77    78    1
     6    77    80    1
     7    77    76    1
     8    78    83   am
     9    71    70    2
    10    12     9    1
    11    80    81    1
    12     8     9    1
    13     8     3   am
    14     9    10    1
    15    70    76   am
    16    70    69    1
    17    81    82    1
    18     2     3    1
    19     2     5    1
    20     2     1    1
    21    76    82    1
    22     3     4    2
    23    85    86    2
    24    85    84    1
    25    83    84    1
    26    84    87    1
    27     5     6    1
    28    68    69    1
    29    67    65   ar
    30    67    66   ar
    31     1     7    1
    32    65    63   ar
    33    69    72    1
    34    10    11    2
    35    59    58    1
    36    59    60    2
    37    66    64   ar
    38    63    62   ar
    39   113   112    2
    40    87    88    1
    41    58    57    1
    42    58    61    1
    43     7     6    1
    44   114   112   am
    45    64    62   ar
    46    62    61    1
    47    72    73    1
    48   112   111    1
    49    88    89   ar
    50    88    90   ar
    51    89    91   ar
    52    73    74    2
    53    73    75   am
    54    90    93   ar
    55    90    92   ar
    56    93    95   ar
    57   111   110    1
    58    91    92   ar
    59    92    94   ar
    60    95    96   ar
    61    16    17    1
    62   110   107    1
    63   119   116    1
    64   116   115    1
    65   116   117    1
    66    20    17    1
    67    94    96   ar
    68    17    18    1
    69    27    26   ar
    70   117   118    2
    71   107   108    1
    72   107   106    1
    73    24    23    2
    74   108   109    2
    75    18    19    2
    76    18    21   am
    77   106   103   am
    78    22    23    1
    79    22    21    1
    80    22    25    1
    81    26    28   ar
    82    26    25    1
    83    56    55    1
    84   103   104    2
    85   103   102    1
    86    42    41    1
    87    42    43    1
    88   105   102    1
    89   101   102    1
    90   101    99   am
    91    44    43    2
    92    98    99    1
    93    98    97    1
    94    41    31   am
    95    55    53   ar
    96    55    54   ar
    97    43    45   am
    98    53    51   ar
    99    99   100    2
   100    54    52   ar
   101    33    30    1
   102    33    34    1
   103    31    32    2
   104    31    30    1
   105    51    50   ar
   106    45    46    1
   107    30    29    1
   108    52    50   ar
   109    34    35   ar
   110    34    36   ar
   111    50    49    1
   112    35    37   ar
   113    46    49    1
   114    46    47    1
   115    36    38   ar
   116    37    39   ar
   117    38    39   ar
   118    39    40    1
   119    47    48    2
