@<TRIPOS>MOLECULE
tmp/1gzfB00.pdb
 222 213 0 0 0
SMALL
GASTEIGER

@<TRIPOS>ATOM
      1  N         24.6800    4.5150   -8.3110 N.3    40  THR40      -0.1218
      2  CA        23.3780    3.9190   -7.8940 C.3    40  THR40       0.1862
      3  C         23.4580    2.4060   -7.7170 C.2    40  THR40       0.2287
      4  O         22.6510    1.8150   -6.9950 O.2    40  THR40      -0.2866
      5  CB        22.2370    4.2120   -8.8890 C.3    40  THR40       0.1770
      6  OG1       22.6070    3.8290  -10.2100 O.3    40  THR40      -0.2211
      7  CG2       21.8660    5.6910   -8.8980 C.3    40  THR40       0.0375
      8  N         25.3550    2.4020   -4.1860 N.3    43  ALA43      -0.1231
      9  CA        25.0800    3.5870   -3.3820 C.3    43  ALA43       0.1694
     10  C         25.3930    3.4170   -1.8960 C.2    43  ALA43       0.2592
     11  O         26.1550    4.1980   -1.3280 O.2    43  ALA43      -0.2718
     12  CB        23.6310    4.0010   -3.5650 C.3    43  ALA43       0.0304
     13  N         24.8030    2.3970   -1.2770 N.am   44  SER44      -0.1952
     14  CA        25.0020    2.1330    0.1450 C.3    44  SER44       0.1924
     15  C         26.4700    1.9750    0.5160 C.2    44  SER44       0.2314
     16  O         26.9450    2.5780    1.4820 O.2    44  SER44      -0.2863
     17  CB        24.2380    0.8740    0.5540 C.3    44  SER44       0.2116
     18  OG        24.6780   -0.2440   -0.1990 O.3    44  SER44      -0.2180
     19  N         28.5510    5.2190    0.1830 N.3    47  ASN47      -0.1240
     20  CA        28.1620    6.1160    1.2620 C.3    47  ASN47       0.1653
     21  C         28.8650    5.7210    2.5550 C.2    47  ASN47       0.2266
     22  O         29.3370    6.5780    3.3050 O.2    47  ASN47      -0.2867
     23  CB        26.6470    6.0890    1.4640 C.3    47  ASN47       0.1155
     24  CG        25.9080    6.9320    0.4380 C.2    47  ASN47       0.2627
     25  OD1       26.5200    7.6980   -0.3000 O.2    47  ASN47      -0.2716
     26  ND2       24.5880    6.8110    0.4060 N.am   47  ASN47      -0.0877
     27  N         31.3910    8.0150    4.9350 N.3    51  ARG51      -0.1245
     28  CA        31.1750    8.3070    6.3500 C.3    51  ARG51       0.1563
     29  C         32.4030    7.9170    7.1720 C.2    51  ARG51       0.2260
     30  O         32.9330    8.7160    7.9460 O.2    51  ARG51      -0.2867
     31  CB        29.9480    7.5480    6.8680 C.3    51  ARG51       0.0307
     32  CG        28.6910    7.7770    6.0430 C.3    51  ARG51       0.0489
     33  CD        27.4300    7.3210    6.7590 C.3    51  ARG51       0.2205
     34  NE        26.2650    7.4860    5.8950 N.pl3  51  ARG51      -0.0865
     35  CZ        25.8090    6.5520    5.0660 C.cat  51  ARG51       0.5346
     36  NH1       26.4110    5.3700    4.9940 N.pl3  51  ARG51       0.1354
     37  NH2       24.7690    6.8110    4.2860 N.pl3  51  ARG51       0.1354
     38  N         11.5780   12.9120    0.3820 N.3    87  PHE87      -0.1227
     39  CA        11.3730   11.9030    1.4180 C.3    87  PHE87       0.1736
     40  C         12.3720   10.7590    1.3320 C.2    87  PHE87       0.2595
     41  O         12.8440   10.4180    0.2540 O.2    87  PHE87      -0.2718
     42  CB         9.9820   11.2590    1.2810 C.3    87  PHE87       0.0547
     43  CG         8.8410   12.2300    1.2150 C.ar   87  PHE87      -0.0202
     44  CD1        8.6330   13.0140    0.0860 C.ar   87  PHE87      -0.0042
     45  CD2        7.9470   12.3350    2.2760 C.ar   87  PHE87      -0.0042
     46  CE1        7.5470   13.8880    0.0160 C.ar   87  PHE87      -0.0003
     47  CE2        6.8600   13.2050    2.2140 C.ar   87  PHE87      -0.0003
     48  CZ         6.6620   13.9800    1.0820 C.ar   87  PHE87      -0.0000
     49  N         12.6850   10.1550    2.4720 N.am   88  ARG88      -0.1966
     50  CA        13.5580    8.9900    2.4700 C.3    88  ARG88       0.1729
     51  C         13.3030    8.1680    3.7220 C.2    88  ARG88       0.2617
     52  O         12.8070    8.6830    4.7180 O.2    88  ARG88      -0.2715
     53  CB        15.0470    9.3610    2.3500 C.3    88  ARG88       0.0348
     54  CG        15.7140    9.9530    3.5790 C.3    88  ARG88       0.0492
     55  CD        17.2450   10.0100    3.4070 C.3    88  ARG88       0.2205
     56  NE        17.9350    8.8250    3.9230 N.pl3  88  ARG88      -0.0865
     57  CZ        18.5580    7.9150    3.1760 C.cat  88  ARG88       0.5346
     58  NH1       18.5880    8.0350    1.8580 N.pl3  88  ARG88       0.1354
     59  NH2       19.1680    6.8810    3.7510 N.pl3  88  ARG88       0.1354
     60  N         13.6030    6.8810    3.6440 N.am   89  GLY89      -0.1940
     61  CA        13.4040    6.0090    4.7850 C.3    89  GLY89       0.2014
     62  C         14.7570    5.6210    5.3380 C.2    89  GLY89       0.2639
     63  O         15.7180    5.5070    4.5910 O.2    89  GLY89      -0.2714
     64  N         14.8400    5.4280    6.6480 N.am   90  ASP90      -0.1957
     65  CA        16.1040    5.0520    7.2690 C.3    90  ASP90       0.1840
     66  C         15.9110    3.9710    8.3160 C.2    90  ASP90       0.2622
     67  O         14.8580    3.8770    8.9440 O.2    90  ASP90      -0.2715
     68  CB        16.7630    6.2710    7.9240 C.3    90  ASP90       0.1450
     69  CG        17.4480    7.1750    6.9160 C.2    90  ASP90       0.3671
     70  OD1       18.4820    6.7640    6.3650 O.co2  90  ASP90      -0.2456
     71  OD2       16.9510    8.2910    6.6730 O.co2  90  ASP90      -0.2456
     72  N         16.9470    3.1520    8.4950 N.am   91  ASP91      -0.1971
     73  CA        16.9210    2.0910    9.4920 C.3    91  ASP91       0.1709
     74  C         17.4990    2.6760   10.7800 C.2    91  ASP91       0.2293
     75  O         18.1200    3.7400   10.7600 O.2    91  ASP91      -0.2864
     76  CB        17.7410    0.8940    9.0070 C.3    91  ASP91       0.1436
     77  CG        17.1040    0.2030    7.8150 C.2    91  ASP91       0.3671
     78  OD1       15.8760   -0.0130    7.8430 O.co2  91  ASP91      -0.2456
     79  OD2       17.8230   -0.1260    6.8480 O.co2  91  ASP91      -0.2456
     80  N         20.1450    2.3260   12.6570 N.3    93  ALA93      -0.1231
     81  CA        21.5460    2.7340   12.6700 C.3    93  ALA93       0.1694
     82  C         21.7130    4.2020   12.2970 C.2    93  ALA93       0.2592
     83  O         22.6760    4.8450   12.7020 O.2    93  ALA93      -0.2718
     84  CB        22.3510    1.8630   11.7190 C.3    93  ALA93       0.0304
     85  N         20.7760    4.7120   11.5060 N.am   94  TYR94      -0.1976
     86  CA        20.8000    6.1060   11.0820 C.3    94  TYR94       0.1639
     87  C         20.9320    7.0400   12.2840 C.2    94  TYR94       0.2290
     88  O         21.6300    8.0520   12.2210 O.2    94  TYR94      -0.2864
     89  CB        19.5090    6.4490   10.3290 C.3    94  TYR94       0.0560
     90  CG        19.2730    7.9400   10.2170 C.ar   94  TYR94      -0.0198
     91  CD1       20.0420    8.7270    9.3610 C.ar   94  TYR94      -0.0009
     92  CD2       18.3240    8.5720   11.0170 C.ar   94  TYR94      -0.0009
     93  CE1       19.8730   10.1160    9.3130 C.ar   94  TYR94       0.0417
     94  CE2       18.1510    9.9460   10.9850 C.ar   94  TYR94       0.0417
     95  CZ        18.9290   10.7160   10.1310 C.ar   94  TYR94       0.1957
     96  OH        18.7730   12.0820   10.1380 O.3    94  TYR94      -0.2866
     97  N         22.7620   18.5610   11.2820 N.3   127  ARG127     -0.1231
     98  CA        23.4100   17.2800   11.0550 C.3   127  ARG127      0.1694
     99  C         24.0950   17.2750    9.6960 C.2   127  ARG127      0.2592
    100  O         23.4790   17.5870    8.6750 O.2   127  ARG127     -0.2718
    101  CB        22.3990   16.1390   11.1220 C.3   127  ARG127      0.0321
    102  CG        23.0110   14.7970   10.8300 C.3   127  ARG127      0.0489
    103  CD        22.1060   13.6390   11.2190 C.3   127  ARG127      0.2205
    104  NE        22.7670   12.3660   10.9470 N.pl3 127  ARG127     -0.0865
    105  CZ        22.3260   11.1810   11.3540 C.cat 127  ARG127      0.5346
    106  NH1       21.2140   11.0950   12.0610 N.pl3 127  ARG127      0.1354
    107  NH2       23.0090   10.0810   11.0560 N.pl3 127  ARG127      0.1354
    108  N         25.3740   16.9180    9.7020 N.am  128  LEU128     -0.1966
    109  CA        26.1830   16.8520    8.4950 C.3   128  LEU128      0.1728
    110  C         26.2680   15.4030    8.0200 C.2   128  LEU128      0.2616
    111  O         26.5270   14.4950    8.8100 O.2   128  LEU128     -0.2715
    112  CB        27.5910   17.3890    8.7850 C.3   128  LEU128      0.0311
    113  CG        28.6900   17.1800    7.7370 C.3   128  LEU128      0.0022
    114  CD1       28.4300   18.0410    6.5230 C.3   128  LEU128      0.0001
    115  CD2       30.0450   17.5310    8.3540 C.3   128  LEU128      0.0001
    116  N         26.0490   15.1950    6.7260 N.am  129  GLU129     -0.1977
    117  CA        26.0980   13.8610    6.1430 C.3   129  GLU129      0.1602
    118  C         27.2630   13.7850    5.1640 C.2   129  GLU129      0.2287
    119  O         27.3600   14.5860    4.2390 O.2   129  GLU129     -0.2864
    120  CB        24.7750   13.5550    5.4300 C.3   129  GLU129      0.0415
    121  CG        24.7350   12.2240    4.7080 C.3   129  GLU129      0.1163
    122  CD        25.0870   11.0500    5.6070 C.2   129  GLU129      0.3649
    123  OE1       24.3600   10.8150    6.5950 O.co2 129  GLU129     -0.2457
    124  OE2       26.0930   10.3640    5.3180 O.co2 129  GLU129     -0.2457
    125  N         26.2240   10.7710    0.0570 N.3   132  TYR132     -0.1241
    126  CA        25.2420   11.5050   -0.7310 C.3   132  TYR132      0.1605
    127  C         23.9320   11.0970   -0.0750 C.2   132  TYR132      0.2264
    128  O         23.8930   10.1100    0.6570 O.2   132  TYR132     -0.2867
    129  CB        25.2610   11.0570   -2.2010 C.3   132  TYR132      0.0534
    130  CG        26.5760   11.3090   -2.8990 C.ar  132  TYR132     -0.0201
    131  CD1       27.6270   10.4040   -2.7930 C.ar  132  TYR132     -0.0009
    132  CD2       26.7770   12.4680   -3.6470 C.ar  132  TYR132     -0.0009
    133  CE1       28.8500   10.6440   -3.4140 C.ar  132  TYR132      0.0417
    134  CE2       27.9970   12.7180   -4.2720 C.ar  132  TYR132      0.0417
    135  CZ        29.0280   11.7980   -4.1520 C.ar  132  TYR132      0.1957
    136  OH        30.2260   12.0220   -4.7850 O.3   132  TYR132     -0.2866
    137  N         20.1010   10.0070   -0.9320 N.3   134  SER134     -0.1202
    138  CA        19.1150    9.6490   -1.9370 C.3   134  SER134      0.2020
    139  C         17.7640    9.8800   -1.2810 C.2   134  SER134      0.2619
    140  O         17.5900    9.6150   -0.0890 O.2   134  SER134     -0.2717
    141  CB        19.2570    8.1800   -2.3330 C.3   134  SER134      0.2103
    142  OG        18.8740    7.3420   -1.2610 O.3   134  SER134     -0.2182
    143  N         16.8160   10.3870   -2.0540 N.am  135  THR135     -0.1938
    144  CA        15.4820   10.6560   -1.5490 C.3   135  THR135      0.2028
    145  C         14.5060   10.3940   -2.6780 C.2   135  THR135      0.2642
    146  O         14.9110   10.0870   -3.7880 O.2   135  THR135     -0.2714
    147  CB        15.3260   12.1310   -1.1350 C.3   135  THR135      0.1808
    148  OG1       15.3000   12.9470   -2.3140 O.3   135  THR135     -0.2208
    149  CG2       16.4970   12.5740   -0.2560 C.3   135  THR135      0.0379
    150  N         13.2190   10.5130   -2.3900 N.am  136  SER136     -0.1949
    151  CA        12.2120   10.3250   -3.4230 C.3   136  SER136      0.1924
    152  C         11.2650   11.5110   -3.4070 C.2   136  SER136      0.2314
    153  O         11.0630   12.1290   -2.3660 O.2   136  SER136     -0.2863
    154  CB        11.4290    9.0320   -3.1860 C.3   136  SER136      0.2116
    155  OG        10.4340    8.8860   -4.1830 O.3   136  SER136     -0.2180
    156  N          7.2730    7.0010   -1.1500 N.3   140  VAL140     -0.1245
    157  CA         7.0860    5.7260   -1.8630 C.3   140  VAL140      0.1561
    158  C          7.1310    4.5110   -0.9170 C.2   140  VAL140      0.2260
    159  O          7.8280    4.5040    0.0980 O.2   140  VAL140     -0.2867
    160  CB         8.1680    5.5520   -2.9100 C.3   140  VAL140      0.0252
    161  CG1        8.1140    6.6790   -3.9410 C.3   140  VAL140      0.0019
    162  CG2        9.5710    5.5360   -2.2920 C.3   140  VAL140      0.0019
    163  N         10.2080    2.3090    0.7950 N.3   143  PHE143     -0.1241
    164  CA        10.8620    2.6250    2.0820 C.3   143  PHE143      0.1605
    165  C          9.9170    3.3150    3.0600 C.2   143  PHE143      0.2264
    166  O         10.3040    3.6020    4.2050 O.2   143  PHE143     -0.2867
    167  CB        12.0570    3.5450    1.8410 C.3   143  PHE143      0.0534
    168  CG        13.0770    2.9330    0.8990 C.ar  143  PHE143     -0.0203
    169  CD1       13.8640    1.8640    1.3230 C.ar  143  PHE143     -0.0042
    170  CD2       13.2260    3.4350   -0.3890 C.ar  143  PHE143     -0.0042
    171  CE1       14.7950    1.2940    0.4550 C.ar  143  PHE143     -0.0003
    172  CE2       14.1550    2.8660   -1.2590 C.ar  143  PHE143     -0.0003
    173  CZ        14.9400    1.7940   -0.8370 C.ar  143  PHE143     -0.0000
    174  N          9.8600    1.7850    6.6490 N.3   146  ARG146     -0.1245
    175  CA        11.0240    1.7000    7.5300 C.3   146  ARG146      0.1563
    176  C         10.7600    2.4960    8.8140 C.2   146  ARG146      0.2260
    177  O          9.9270    3.4130    8.8290 O.2   146  ARG146     -0.2867
    178  CB        12.2460    2.2390    6.7940 C.3   146  ARG146      0.0307
    179  CG        12.3620    1.6470    5.3910 C.3   146  ARG146      0.0489
    180  CD        13.7210    1.0290    5.1130 C.3   146  ARG146      0.2205
    181  NE        14.7550    2.0360    4.9430 N.pl3 146  ARG146     -0.0865
    182  CZ        15.9240    1.8140    4.3700 C.cat 146  ARG146      0.5346
    183  NH1       16.2240    0.5960    3.8970 N.pl3 146  ARG146      0.1354
    184  NH2       16.8400    2.7690    4.2340 N.pl3 146  ARG146      0.1354
    185  N         18.7880    1.4820  -11.5120 N.3   169  PHE169     -0.1227
    186  CA        19.0840    1.0480  -10.1510 C.3   169  PHE169      0.1736
    187  C         18.6150    2.0740   -9.1240 C.2   169  PHE169      0.2595
    188  O         18.5320    1.7810   -7.9320 O.2   169  PHE169     -0.2718
    189  CB        20.5830    0.7920   -9.9830 C.3   169  PHE169      0.0547
    190  CG        21.1080   -0.3350  -10.8300 C.ar  169  PHE169     -0.0202
    191  CD1       20.4750   -1.5710  -10.8380 C.ar  169  PHE169     -0.0042
    192  CD2       22.2430   -0.1640  -11.6100 C.ar  169  PHE169     -0.0042
    193  CE1       20.9660   -2.6190  -11.6120 C.ar  169  PHE169     -0.0003
    194  CE2       22.7380   -1.2090  -12.3860 C.ar  169  PHE169     -0.0003
    195  CZ        22.0960   -2.4350  -12.3850 C.ar  169  PHE169     -0.0000
    196  N         18.3040    3.2790   -9.5880 N.am  170  ALA170     -0.1966
    197  CA        17.8280    4.3240   -8.6910 C.3   170  ALA170      0.1728
    198  C         16.4440    3.9500   -8.1750 C.2   170  ALA170      0.2617
    199  O         15.7590    3.1100   -8.7640 O.2   170  ALA170     -0.2715
    200  CB        17.7650    5.6530   -9.4250 C.3   170  ALA170      0.0334
    201  N         16.0350    4.5750   -7.0760 N.am  171  GLY171     -0.1940
    202  CA        14.7260    4.2960   -6.5200 C.3   171  GLY171      0.2014
    203  C         13.6310    5.0090   -7.2900 C.2   171  GLY171      0.2638
    204  O         13.9030    5.7980   -8.1940 O.2   171  GLY171     -0.2714
    205  N         12.3850    4.7280   -6.9360 N.am  172  GLN172     -0.1977
    206  CA        11.2390    5.3540   -7.5870 C.3   172  GLN172      0.1601
    207  C         11.2500    6.8680   -7.3380 C.2   172  GLN172      0.2287
    208  O         11.3570    7.3090   -6.1950 O.2   172  GLN172     -0.2864
    209  CB         9.9480    4.7290   -7.0430 C.3   172  GLN172      0.0394
    210  CG         8.6580    5.3320   -7.5790 C.3   172  GLN172      0.0908
    211  CD         7.4260    4.5740   -7.1120 C.2   172  GLN172      0.2608
    212  OE1        7.2490    4.3260   -5.9170 O.2   172  GLN172     -0.2717
    213  NE2        6.5650    4.2070   -8.0540 N.am  172  GLN172     -0.0878
    214  N         13.4670    9.0280   -7.6010 N.3   174  GLU174     -0.1245
    215  CA        14.6200    9.4180   -6.8040 C.3   174  GLU174      0.1567
    216  C         15.2420   10.7610   -7.1550 C.2   174  GLU174      0.2260
    217  O         15.3960   11.1180   -8.3190 O.2   174  GLU174     -0.2867
    218  CB        15.7260    8.3600   -6.8780 C.3   174  GLU174      0.0388
    219  CG        16.9480    8.7470   -6.0440 C.3   174  GLU174      0.1160
    220  CD        18.0700    7.7400   -6.0950 C.2   174  GLU174      0.3649
    221  OE1       19.1320    7.9950   -5.4950 O.co2 174  GLU174     -0.2457
    222  OE2       17.8970    6.6960   -6.7610 O.co2 174  GLU174     -0.2457
@<TRIPOS>BOND
     1   194   195   ar
     2   194   192   ar
     3   195   193   ar
     4   193   191   ar
     5   192   190   ar
     6   185   186    1
     7   191   190   ar
     8   190   189    1
     9     6     5    1
    10   186   189    1
    11   186   187    1
    12   196   187   am
    13   196   197    1
    14   200   197    1
    15   187   188    2
    16     7     5    1
    17     5     2    1
    18   199   198    2
    19   197   198    1
    20   217   216    2
    21     1     2    1
    22   204   203    2
    23   198   201   am
    24   213   211   am
    25     2     3    1
    26     3     4    2
    27   214   215    1
    28   206   207    1
    29   206   209    1
    30   206   205    1
    31   210   211    1
    32   210   209    1
    33   207   208    2
    34   203   205   am
    35   203   202    1
    36   216   215    1
    37   211   212    2
    38   201   202    1
    39   218   215    1
    40   218   219    1
    41   222   220   ar
    42   220   219    1
    43   220   221   ar
    44   136   135    1
    45   134   135   ar
    46   134   132   ar
    47     8     9    1
    48   155   154    1
    49   135   133   ar
    50   161   160    1
    51   146   145    2
    52   132   130   ar
    53    12     9    1
    54   151   152    1
    55   151   154    1
    56   151   150    1
    57   133   131   ar
    58   152   153    2
    59     9    10    1
    60   160   162    1
    61   160   157    1
    62   130   131   ar
    63   130   129    1
    64   145   150   am
    65   145   144    1
    66   141   138    1
    67   141   142    1
    68   148   147    1
    69   129   126    1
    70   143   144    1
    71   143   139   am
    72   138   139    1
    73   138   137    1
    74    10    11    2
    75    10    13   am
    76   157   156    1
    77   157   158    1
    78   144   147    1
    79   139   140    2
    80    13    14    1
    81   172   173   ar
    82   172   170   ar
    83   147   149    1
    84   158   159    2
    85   173   171   ar
    86   126   127    1
    87   126   125    1
    88   170   168   ar
    89    25    24    2
    90    18    17    1
    91   127   128    2
    92    46    44   ar
    93    46    48   ar
    94    44    43   ar
    95    14    15    1
    96    14    17    1
    97    19    20    1
    98    41    40    2
    99    38    39    1
   100    26    24   am
   101    24    23    1
   102   171   169   ar
   103    15    16    2
   104   163   164    1
   105   168   169   ar
   106   168   167    1
   107    48    47   ar
   108    43    42    1
   109    43    45   ar
   110    20    23    1
   111    20    21    1
   112    42    39    1
   113    40    39    1
   114    40    49   am
   115   167   164    1
   116    58    57    1
   117   164   165    1
   118    47    45   ar
   119    53    50    1
   120    53    54    1
   121    50    49    1
   122    50    51    1
   123    21    22    2
   124   165   166    2
   125    57    59    1
   126    57    56    2
   127    55    54    1
   128    55    56    1
   129    60    51   am
   130    60    61    1
   131    51    52    2
   132   183   182    1
   133   184   182    1
   134   119   118    2
   135    37    35    1
   136   182   181    2
   137    63    62    2
   138   121   120    1
   139   121   122    1
   140    61    62    1
   141    27    28    1
   142   181   180    1
   143    36    35    1
   144    35    34    2
   145   180   179    1
   146   118   117    1
   147   124   122   ar
   148    62    64   am
   149   179   178    1
   150   120   117    1
   151   122   123   ar
   152    34    33    1
   153    32    33    1
   154    32    31    1
   155   117   116    1
   156    28    31    1
   157    28    29    1
   158    70    69   ar
   159   114   113    1
   160    64    65    1
   161   174   175    1
   162    71    69   ar
   163   116   110   am
   164   178   175    1
   165    79    77   ar
   166    69    68    1
   167    29    30    2
   168    65    68    1
   169    65    66    1
   170   175   176    1
   171   113   115    1
   172   113   112    1
   173    77    78   ar
   174    77    76    1
   175   110   109    1
   176   110   111    2
   177    66    72   am
   178    66    67    2
   179   109   112    1
   180   109   108    1
   181    72    73    1
   182   100    99    2
   183   176   177    2
   184    76    73    1
   185    93    91   ar
   186    93    95   ar
   187    91    90   ar
   188    73    74    1
   189    99   108   am
   190    99    98    1
   191    95    96    1
   192    95    94   ar
   193    90    89    1
   194    90    92   ar
   195    89    86    1
   196    75    74    2
   197   102   101    1
   198   102   103    1
   199   104   103    1
   200   104   105    2
   201    94    92   ar
   202    98   101    1
   203    98    97    1
   204   107   105    1
   205    86    85    1
   206    86    87    1
   207   105   106    1
   208    85    82   am
   209    84    81    1
   210    88    87    2
   211    82    81    1
   212    82    83    2
   213    80    81    1
