@<TRIPOS>MOLECULE
tmp/1gzfC00.pdb
 148 141 0 0 0
SMALL
GASTEIGER

@<TRIPOS>ATOM
      1  N         14.4420   40.1530   48.5170 N.3    36  TYR36      -0.1227
      2  CA        14.2420   39.6200   47.1650 C.3    36  TYR36       0.1736
      3  C         12.7590   39.4500   46.8140 C.2    36  TYR36       0.2596
      4  O         12.3510   39.6400   45.6650 O.2    36  TYR36      -0.2718
      5  CB        14.8770   38.2510   47.0100 C.3    36  TYR36       0.0548
      6  CG        14.5010   37.6050   45.6820 C.ar   36  TYR36      -0.0200
      7  CD1       15.2250   37.9010   44.5220 C.ar   36  TYR36      -0.0009
      8  CD2       13.4260   36.7220   45.6150 C.ar   36  TYR36      -0.0009
      9  CE1       14.8660   37.3180   43.3010 C.ar   36  TYR36       0.0417
     10  CE2       13.0660   36.1430   44.3990 C.ar   36  TYR36       0.0417
     11  CZ        13.7830   36.4390   43.2440 C.ar   36  TYR36       0.1957
     12  OH        13.4190   35.8620   42.0610 O.3    36  TYR36      -0.2866
     13  N         11.9500   39.0960   47.7990 N.am   37  THR37      -0.1953
     14  CA        10.5090   38.9410   47.5570 C.3    37  THR37       0.1897
     15  C          9.8600   40.3090   47.3620 C.2    37  THR37       0.2313
     16  O          8.8100   40.4170   46.7160 O.2    37  THR37      -0.2863
     17  CB         9.8140   38.2220   48.7190 C.3    37  THR37       0.1794
     18  OG1        9.9130   38.9910   49.9220 O.3    37  THR37      -0.2208
     19  CG2       10.4320   36.8480   48.9700 C.3    37  THR37       0.0378
     20  N         11.8820   41.4240   43.6350 N.3    40  ALA40      -0.1231
     21  CA        12.3240   40.3350   42.7730 C.3    40  ALA40       0.1694
     22  C         12.5460   40.7170   41.3180 C.2    40  ALA40       0.2592
     23  O         13.6330   40.5040   40.7770 O.2    40  ALA40      -0.2718
     24  CB        11.3370   39.1820   42.8600 C.3    40  ALA40       0.0304
     25  N         11.5180   41.2710   40.6830 N.am   41  SER41      -0.1952
     26  CA        11.6060   41.6600   39.2800 C.3    41  SER41       0.1924
     27  C         12.7260   42.6650   39.0260 C.2    41  SER41       0.2314
     28  O         13.4490   42.5700   38.0350 O.2    41  SER41      -0.2863
     29  CB        10.2670   42.2430   38.8180 C.3    41  SER41       0.2116
     30  OG         9.2360   41.2700   38.8900 O.3    41  SER41      -0.2180
     31  N         16.1360   40.8050   39.6570 N.3    44  ASN44      -0.1240
     32  CA        16.3910   39.9090   38.5310 C.3    44  ASN44       0.1653
     33  C         16.6790   40.6920   37.2530 C.2    44  ASN44       0.2266
     34  O         17.4280   40.2390   36.3910 O.2    44  ASN44      -0.2867
     35  CB        15.2030   38.9680   38.3100 C.3    44  ASN44       0.1155
     36  CG        15.0710   37.9310   39.4110 C.2    44  ASN44       0.2627
     37  OD1       16.0250   37.6650   40.1370 O.2    44  ASN44      -0.2716
     38  ND2       13.8900   37.3290   39.5270 N.am   44  ASN44      -0.0877
     39  N          5.9590   27.8530   36.6200 N.3    85  ARG85      -0.1231
     40  CA         6.0640   29.2980   36.5590 C.3    85  ARG85       0.1694
     41  C          5.4510   29.7810   35.2570 C.2    85  ARG85       0.2592
     42  O          5.4530   29.0640   34.2440 O.2    85  ARG85      -0.2718
     43  CB         7.5090   29.7870   36.7270 C.3    85  ARG85       0.0321
     44  CG         8.4330   29.6700   35.5470 C.3    85  ARG85       0.0489
     45  CD         9.5980   30.6420   35.7410 C.3    85  ARG85       0.2205
     46  NE         9.2530   31.9960   35.3180 N.pl3  85  ARG85      -0.0865
     47  CZ         9.5230   33.0990   36.0110 C.cat  85  ARG85       0.5346
     48  NH1       10.1450   33.0230   37.1810 N.pl3  85  ARG85       0.1354
     49  NH2        9.1720   34.2850   35.5280 N.pl3  85  ARG85       0.1354
     50  N          4.8670   30.9720   35.3140 N.am   86  GLY86      -0.1957
     51  CA         4.2360   31.5450   34.1410 C.3    86  GLY86       0.1869
     52  C          5.0530   32.7270   33.6800 C.2    86  GLY86       0.2309
     53  O          5.6060   33.4580   34.5060 O.2    86  GLY86      -0.2863
     54  N         11.8760   32.3030   40.2630 N.3   131  SER131     -0.1202
     55  CA        10.7690   32.1360   41.1910 C.3   131  SER131      0.2020
     56  C          9.8130   31.1460   40.5340 C.2   131  SER131      0.2619
     57  O          9.4150   31.3360   39.3870 O.2   131  SER131     -0.2717
     58  CB        10.0340   33.4670   41.4090 C.3   131  SER131      0.2103
     59  OG        10.8950   34.4430   41.9690 O.3   131  SER131     -0.2182
     60  N          9.4660   30.0840   41.2510 N.am  132  THR132     -0.1938
     61  CA         8.5350   29.0890   40.7320 C.3   132  THR132      0.2028
     62  C          7.5560   28.7810   41.8500 C.2   132  THR132      0.2642
     63  O          7.6930   29.2970   42.9690 O.2   132  THR132     -0.2714
     64  CB         9.2340   27.7750   40.3820 C.3   132  THR132      0.1808
     65  OG1        9.6290   27.1350   41.5960 O.3   132  THR132     -0.2208
     66  CG2       10.4640   28.0190   39.5310 C.3   132  THR132      0.0379
     67  N          6.5780   27.9320   41.5490 N.am  133  SER133     -0.1949
     68  CA         5.5750   27.5320   42.5200 C.3   133  SER133      0.1924
     69  C          5.4620   26.0090   42.4870 C.2   133  SER133      0.2314
     70  O          5.7770   25.3860   41.4700 O.2   133  SER133     -0.2863
     71  CB         4.2050   28.1150   42.1580 C.3   133  SER133      0.2116
     72  OG         4.2650   29.5220   42.0110 O.3   133  SER133     -0.2180
     73  N         -0.0770   27.9890   40.2130 N.3   137  VAL137     -0.1245
     74  CA        -0.9560   28.8920   40.9440 C.3   137  VAL137      0.1561
     75  C         -1.5900   29.9760   40.0850 C.2   137  VAL137      0.2260
     76  O         -1.0250   30.4060   39.0810 O.2   137  VAL137     -0.2867
     77  CB        -0.2150   29.5190   42.1490 C.3   137  VAL137      0.0252
     78  CG1        0.1000   28.4290   43.1700 C.3   137  VAL137      0.0019
     79  CG2        1.0720   30.1840   41.6860 C.3   137  VAL137      0.0019
     80  N         -2.0790   33.2310   40.4120 N.3   139  GLN139     -0.1231
     81  CA        -1.3940   34.4890   40.1800 C.3   139  GLN139      0.1698
     82  C         -0.6360   34.5320   38.8660 C.2   139  GLN139      0.2592
     83  O         -0.5380   35.5880   38.2490 O.2   139  GLN139     -0.2718
     84  CB        -0.4480   34.8200   41.3380 C.3   139  GLN139      0.0381
     85  CG         0.0390   36.2660   41.2940 C.3   139  GLN139      0.0905
     86  CD         0.7700   36.6930   42.5480 C.2   139  GLN139      0.2608
     87  OE1        1.2170   37.8340   42.6550 O.2   139  GLN139     -0.2717
     88  NE2        0.8940   35.7820   43.5070 N.am  139  GLN139     -0.0878
     89  N         -0.1190   33.3920   38.4150 N.am  140  PHE140     -0.1976
     90  CA         0.6230   33.3860   37.1630 C.3   140  PHE140      0.1639
     91  C          0.1240   32.3830   36.1140 C.2   140  PHE140      0.2290
     92  O          0.6430   32.3370   34.9970 O.2   140  PHE140     -0.2864
     93  CB         2.1130   33.1780   37.4640 C.3   140  PHE140      0.0560
     94  CG         2.6340   34.0930   38.5460 C.ar  140  PHE140     -0.0200
     95  CD1        2.5010   33.7510   39.8890 C.ar  140  PHE140     -0.0042
     96  CD2        3.1900   35.3260   38.2260 C.ar  140  PHE140     -0.0042
     97  CE1        2.9090   34.6260   40.8970 C.ar  140  PHE140     -0.0003
     98  CE2        3.6010   36.2090   39.2280 C.ar  140  PHE140     -0.0003
     99  CZ         3.4590   35.8590   40.5630 C.ar  140  PHE140     -0.0000
    100  N         -0.7370   33.6020   32.4390 N.3   143  ARG143     -0.1245
    101  CA         0.2640   34.0770   31.5020 C.3   143  ARG143      0.1563
    102  C          0.3050   33.1610   30.2730 C.2   143  ARG143      0.2260
    103  O         -0.0530   31.9820   30.3450 O.2   143  ARG143     -0.2867
    104  CB         1.6140   34.1610   32.2010 C.3   143  ARG143      0.0307
    105  CG         1.6730   35.3190   33.1970 C.3   143  ARG143      0.0489
    106  CD         2.9170   35.2820   34.0420 C.3   143  ARG143      0.2205
    107  NE         2.9840   36.4280   34.9440 N.pl3 143  ARG143     -0.0865
    108  CZ         4.1050   37.0660   35.2530 C.cat 143  ARG143      0.5346
    109  NH1        5.2800   36.5440   34.9260 N.pl3 143  ARG143      0.1354
    110  NH2        4.0510   38.2270   35.8850 N.pl3 143  ARG143      0.1354
    111  N          5.6210   38.2620   51.6120 N.3   166  PHE166     -0.1227
    112  CA         5.5820   38.8070   50.2630 C.3   166  PHE166      0.1736
    113  C          5.8150   37.7390   49.2030 C.2   166  PHE166      0.2595
    114  O          5.5210   37.9550   48.0250 O.2   166  PHE166     -0.2718
    115  CB         6.6280   39.9140   50.1170 C.3   166  PHE166      0.0547
    116  CG         6.4820   41.0110   51.1320 C.ar  166  PHE166     -0.0202
    117  CD1        7.5720   41.4200   51.8900 C.ar  166  PHE166     -0.0042
    118  CD2        5.2480   41.6270   51.3380 C.ar  166  PHE166     -0.0042
    119  CE1        7.4380   42.4350   52.8480 C.ar  166  PHE166     -0.0003
    120  CE2        5.1010   42.6420   52.2940 C.ar  166  PHE166     -0.0003
    121  CZ         6.2030   43.0420   53.0470 C.ar  166  PHE166     -0.0000
    122  N          6.3430   36.5920   49.6180 N.am  167  ALA167     -0.1966
    123  CA         6.5970   35.5050   48.6770 C.3   167  ALA167      0.1728
    124  C          5.2910   35.0370   48.0390 C.2   167  ALA167      0.2617
    125  O          4.2220   35.1880   48.6190 O.2   167  ALA167     -0.2715
    126  CB         7.2780   34.3510   49.3900 C.3   167  ALA167      0.0334
    127  N          5.3840   34.4840   46.8330 N.am  168  GLY168     -0.1940
    128  CA         4.1990   33.9990   46.1490 C.3   168  GLY168      0.2014
    129  C          3.6600   32.7240   46.7790 C.2   168  GLY168      0.2638
    130  O          4.3290   32.0890   47.5880 O.2   168  GLY168     -0.2714
    131  N          2.4390   32.3620   46.4030 N.am  169  GLN169     -0.1977
    132  CA         1.7830   31.1670   46.9070 C.3   169  GLN169      0.1601
    133  C          2.6000   29.9290   46.5220 C.2   169  GLN169      0.2287
    134  O          2.8600   29.7030   45.3480 O.2   169  GLN169     -0.2864
    135  CB         0.3690   31.0880   46.3070 C.3   169  GLN169      0.0394
    136  CG        -0.4050   29.8090   46.6330 C.3   169  GLN169      0.0908
    137  CD        -1.8320   29.8200   46.0990 C.2   169  GLN169      0.2608
    138  OE1       -2.1060   30.3630   45.0280 O.2   169  GLN169     -0.2717
    139  NE2       -2.7470   29.2040   46.8340 N.am  169  GLN169     -0.0878
    140  N          5.6140   29.4050   46.6750 N.3   171  GLU171     -0.1245
    141  CA         6.8290   29.7680   45.9740 C.3   171  GLU171      0.1567
    142  C          8.0570   28.9440   46.3420 C.2   171  GLU171      0.2260
    143  O          8.3570   28.7260   47.5130 O.2   171  GLU171     -0.2867
    144  CB         7.1390   31.2600   46.1750 C.3   171  GLU171      0.0388
    145  CG         8.5360   31.6320   45.7320 C.3   171  GLU171      0.1160
    146  CD         8.7030   33.1320   45.4630 C.2   171  GLU171      0.3649
    147  OE1        7.8400   33.9310   45.8810 O.co2 171  GLU171     -0.2457
    148  OE2        9.7060   33.4980   44.8290 O.co2 171  GLU171     -0.2457
@<TRIPOS>BOND
     1   102   103    2
     2   102   101    1
     3   101   104    1
     4   101   100    1
     5   104   105    1
     6   105   106    1
     7    52    51    1
     8    52    53    2
     9   106   107    1
    10    51    50    1
    11    42    41    2
    12   109   108    1
    13   107   108    2
    14    92    91    2
    15   108   110    1
    16    41    50   am
    17    41    40    1
    18    46    45    1
    19    46    47    2
    20    49    47    1
    21    44    45    1
    22    44    43    1
    23    47    48    1
    24    91    90    1
    25    34    33    2
    26    40    39    1
    27    40    43    1
    28    90    93    1
    29    90    89    1
    30    33    32    1
    31    93    94    1
    32    28    27    2
    33    96    94   ar
    34    96    98   ar
    35    83    82    2
    36    35    32    1
    37    35    36    1
    38    89    82   am
    39    32    31    1
    40    94    95   ar
    41    29    30    1
    42    29    26    1
    43    82    81    1
    44    27    26    1
    45    76    75    2
    46    98    99   ar
    47    26    25    1
    48    57    56    2
    49    36    38   am
    50    36    37    2
    51    66    64    1
    52    95    97   ar
    53    75    74    1
    54    81    80    1
    55    81    84    1
    56    73    74    1
    57    54    55    1
    58    64    61    1
    59    64    65    1
    60    56    55    1
    61    56    60   am
    62    99    97   ar
    63    25    22   am
    64    61    60    1
    65    61    62    1
    66    23    22    2
    67    74    77    1
    68    55    58    1
    69    85    84    1
    70    85    86    1
    71    22    21    1
    72    58    59    1
    73    70    69    2
    74    67    62   am
    75    67    68    1
    76    79    77    1
    77    62    63    2
    78    72    71    1
    79    12    11    1
    80    77    78    1
    81    71    68    1
    82    69    68    1
    83    86    87    2
    84    86    88   am
    85    21    24    1
    86    21    20    1
    87    11     9   ar
    88    11    10   ar
    89     9     7   ar
    90    10     8   ar
    91     7     6   ar
    92   148   146   ar
    93   138   137    2
    94   134   133    2
    95   146   145    1
    96   146   147   ar
    97     8     6   ar
    98     4     3    2
    99     6     5    1
   100   145   144    1
   101   141   144    1
   102   141   142    1
   103   141   140    1
   104   137   136    1
   105   137   139   am
   106   128   129    1
   107   128   127    1
   108   135   136    1
   109   135   132    1
   110   142   143    2
   111   131   129   am
   112   131   132    1
   113   133   132    1
   114    16    15    2
   115   129   130    2
   116     3     2    1
   117     3    13   am
   118   127   124   am
   119     5     2    1
   120     2     1    1
   121    15    14    1
   122    14    13    1
   123    14    17    1
   124   114   113    2
   125   124   125    2
   126   124   123    1
   127   123   126    1
   128   123   122    1
   129    17    19    1
   130    17    18    1
   131   113   122   am
   132   113   112    1
   133   115   112    1
   134   115   116    1
   135   112   111    1
   136   116   118   ar
   137   116   117   ar
   138   118   120   ar
   139   117   119   ar
   140   120   121   ar
   141   119   121   ar
