@<TRIPOS>MOLECULE
tmp/1gzgB00.pdb
 130 120 0 0 0
SMALL
GASTEIGER

@<TRIPOS>ATOM
      1  N        107.7210   32.7520  -29.6250 N.3    82  PHE82      -0.1241
      2  CA       108.8790   31.9550  -30.0020 C.3    82  PHE82       0.1605
      3  C        108.4250   30.7240  -30.7760 C.2    82  PHE82       0.2264
      4  O        107.9430   29.7640  -30.1990 O.2    82  PHE82      -0.2867
      5  CB       109.6770   31.5600  -28.7730 C.3    82  PHE82       0.0534
      6  CG       110.3170   32.7350  -28.1070 C.ar   82  PHE82      -0.0203
      7  CD1      111.4710   33.2770  -28.6320 C.ar   82  PHE82      -0.0042
      8  CD2      109.7090   33.3600  -27.0330 C.ar   82  PHE82      -0.0042
      9  CE1      112.0420   34.3880  -28.0490 C.ar   82  PHE82      -0.0003
     10  CE2      110.2870   34.4690  -26.4530 C.ar   82  PHE82      -0.0003
     11  CZ       111.4560   34.9700  -26.9670 C.ar   82  PHE82      -0.0000
     12  N        110.2680   37.6620  -32.2970 N.3   123  ASP123     -0.1239
     13  CA       111.6780   37.3650  -32.1040 C.3   123  ASP123      0.1674
     14  C        112.4460   37.4850  -33.4150 C.2   123  ASP123      0.2266
     15  O        112.1810   36.7640  -34.3820 O.2   123  ASP123     -0.2867
     16  CB       111.8180   35.9610  -31.5170 C.3   123  ASP123      0.1410
     17  CG       113.2540   35.6090  -31.1720 C.2   123  ASP123      0.3668
     18  OD1      113.9270   36.4280  -30.5100 O.co2 123  ASP123     -0.2456
     19  OD2      113.7830   34.5290  -31.5070 O.co2 123  ASP123     -0.2456
     20  N        115.6780   36.7520  -35.0160 N.3   125  ALA125     -0.1245
     21  CA       116.8200   35.8720  -34.8390 C.3   125  ALA125      0.1562
     22  C        116.7410   34.8090  -35.9250 C.2   125  ALA125      0.2260
     23  O        115.6820   34.5780  -36.5010 O.2   125  ALA125     -0.2867
     24  CB       116.8030   35.2410  -33.4720 C.3   125  ALA125      0.0290
     25  N        118.7070   31.6880  -35.6780 N.3   127  ASP127     -0.1239
     26  CA       118.9910   30.3740  -35.1920 C.3   127  ASP127      0.1674
     27  C        117.7870   29.3980  -35.1790 C.2   127  ASP127      0.2266
     28  O        118.0110   28.2480  -35.5490 O.2   127  ASP127     -0.2867
     29  CB       119.6900   30.4690  -33.8580 C.3   127  ASP127      0.1410
     30  CG       118.8750   31.2120  -32.8540 C.2   127  ASP127      0.3668
     31  OD1      118.4310   32.3320  -33.1890 O.co2 127  ASP127     -0.2456
     32  OD2      118.6040   30.7570  -31.7270 O.co2 127  ASP127     -0.2456
     33  N        122.8650   31.7260  -35.1540 N.3   135  ASN135     -0.1240
     34  CA       122.2890   33.0150  -35.4940 C.3   135  ASN135      0.1653
     35  C        123.0740   33.7380  -36.5410 C.2   135  ASN135      0.2266
     36  O        123.4820   34.8830  -36.3570 O.2   135  ASN135     -0.2867
     37  CB       122.2200   33.9290  -34.2880 C.3   135  ASN135      0.1155
     38  CG       121.1350   34.9710  -34.4290 C.2   135  ASN135      0.2627
     39  OD1      120.5150   35.1010  -35.4870 O.2   135  ASN135     -0.2716
     40  ND2      120.8910   35.7100  -33.3640 N.am  135  ASN135     -0.0877
     41  N        116.8900   39.3430  -30.5240 N.3   171  SER171     -0.1202
     42  CA       117.4170   38.6040  -29.3650 C.3   171  SER171      0.2020
     43  C        118.8240   38.1010  -29.6450 C.2   171  SER171      0.2618
     44  O        119.3730   37.2680  -28.9220 O.2   171  SER171     -0.2717
     45  CB       116.5140   37.4110  -29.0370 C.3   171  SER171      0.2103
     46  OG       116.4360   36.5150  -30.1290 O.3   171  SER171     -0.2182
     47  N        119.4320   38.6370  -30.7010 N.am  172  ASP172     -0.1973
     48  CA       120.7200   38.1600  -31.2400 C.3   172  ASP172      0.1709
     49  C        122.1060   38.5480  -30.7110 C.2   172  ASP172      0.2293
     50  O        123.0450   37.7710  -30.9090 O.2   172  ASP172     -0.2864
     51  CB       120.7700   38.5710  -32.6960 C.3   172  ASP172      0.1436
     52  CG       120.6690   40.0690  -32.8650 C.2   172  ASP172      0.3671
     53  OD1      119.5550   40.6100  -32.6900 O.co2 172  ASP172     -0.2456
     54  OD2      121.6530   40.7860  -33.1420 O.co2 172  ASP172     -0.2456
     55  N        122.6230   41.0320  -22.8450 N.3   201  LYS201     -0.1301
     56  CA       122.4920   39.6230  -23.1090 C.3   201  LYS201      0.1247
     57  C        123.6250   38.7130  -22.6820 C.3   201  LYS201      0.2009
     58  O        124.5930   38.8440  -23.4190 O.3   201  LYS201     -0.2188
     59  CB       121.6160   39.1540  -24.2640 C.3   201  LYS201      0.0218
     60  CG       121.3000   37.6690  -24.2210 C.3   201  LYS201      0.0031
     61  CD       120.5490   37.3310  -25.4830 C.3   201  LYS201      0.0205
     62  CE       120.1480   35.8480  -25.4860 C.3   201  LYS201      0.1093
     63  NZ       119.4000   35.4960  -26.7660 N.3   201  LYS201     -0.1314
     64  N        119.8360   29.4970  -19.7500 N.3   207  TYR207     -0.1241
     65  CA       119.0030   29.3060  -20.9340 C.3   207  TYR207      0.1605
     66  C        118.6950   27.8420  -21.2430 C.2   207  TYR207      0.2264
     67  O        117.9980   27.5610  -22.2090 O.2   207  TYR207     -0.2867
     68  CB       119.7030   29.8800  -22.1760 C.3   207  TYR207      0.0534
     69  CG       120.1130   31.3320  -22.0780 C.ar  207  TYR207     -0.0201
     70  CD1      119.2990   32.2680  -21.4820 C.ar  207  TYR207     -0.0009
     71  CD2      121.3190   31.7690  -22.6250 C.ar  207  TYR207     -0.0009
     72  CE1      119.6710   33.5910  -21.4090 C.ar  207  TYR207      0.0417
     73  CE2      121.6900   33.0900  -22.5650 C.ar  207  TYR207      0.0417
     74  CZ       120.8670   34.0010  -21.9560 C.ar  207  TYR207      0.1957
     75  OH       121.2340   35.3310  -21.8850 O.3   207  TYR207     -0.2866
     76  N        115.0610   26.5960  -22.2580 N.3   210  PHE210     -0.1227
     77  CA       114.5200   27.2470  -23.4550 C.3   210  PHE210      0.1736
     78  C        114.9380   26.4670  -24.6900 C.2   210  PHE210      0.2595
     79  O        114.1700   26.2940  -25.6170 O.2   210  PHE210     -0.2718
     80  CB       115.0580   28.6750  -23.5390 C.3   210  PHE210      0.0547
     81  CG       114.6490   29.4280  -24.7740 C.ar  210  PHE210     -0.0202
     82  CD1      115.4160   29.3730  -25.9240 C.ar  210  PHE210     -0.0042
     83  CD2      113.5220   30.2180  -24.7760 C.ar  210  PHE210     -0.0042
     84  CE1      115.0450   30.0900  -27.0390 C.ar  210  PHE210     -0.0003
     85  CE2      113.1550   30.9330  -25.8870 C.ar  210  PHE210     -0.0003
     86  CZ       113.9070   30.8580  -27.0260 C.ar  210  PHE210     -0.0000
     87  N        116.1680   25.9870  -24.6980 N.am  211  ARG211     -0.1980
     88  CA       116.6510   25.2150  -25.8240 C.3   211  ARG211      0.1597
     89  C        115.8200   23.9360  -25.9930 C.2   211  ARG211      0.2287
     90  O        115.5810   23.4800  -27.1180 O.2   211  ARG211     -0.2864
     91  CB       118.1310   24.9480  -25.6520 C.3   211  ARG211      0.0334
     92  CG       118.9120   26.2470  -25.6770 C.3   211  ARG211      0.0492
     93  CD       120.3060   26.1400  -25.1350 C.3   211  ARG211      0.2205
     94  NE       121.0020   27.4220  -25.2000 N.pl3 211  ARG211     -0.0865
     95  CZ       122.1090   27.6950  -24.5310 C.cat 211  ARG211      0.5346
     96  NH1      122.6450   26.7770  -23.7400 N.pl3 211  ARG211      0.1354
     97  NH2      122.6820   28.8850  -24.6480 N.pl3 211  ARG211      0.1354
     98  N        116.2390   23.5860  -30.1210 N.3   216  SER216     -0.1217
     99  CA       117.5180   24.0590  -30.6480 C.3   216  SER216      0.1889
    100  C        118.6810   23.3420  -29.9700 C.2   216  SER216      0.2288
    101  O        118.4820   22.4740  -29.1110 O.2   216  SER216     -0.2866
    102  CB       117.6610   25.5720  -30.4700 C.3   216  SER216      0.2089
    103  OG       117.9490   25.9120  -29.1230 O.3   216  SER216     -0.2183
    104  N        128.8420   30.8610  -27.4890 N.3   217  LYS217     -0.1245
    105  CA       128.0110   32.0060  -27.1550 C.3   217  LYS217      0.1561
    106  C        128.8840   33.1590  -26.6770 C.2   217  LYS217      0.2260
    107  O        128.5510   34.3310  -26.8540 O.2   217  LYS217     -0.2867
    108  CB       127.0540   31.6220  -26.0250 C.3   217  LYS217      0.0271
    109  CG       126.1310   30.4520  -26.3520 C.3   217  LYS217      0.0035
    110  CD       125.0420   30.8710  -27.3170 C.3   217  LYS217      0.0206
    111  CE       124.1710   29.7000  -27.7280 C.3   217  LYS217      0.1093
    112  NZ       123.0520   30.1570  -28.5990 N.3   217  LYS217     -0.1314
    113  N        127.4920   36.7700  -26.8050 N.3   221  GLN221     -0.1245
    114  CA       126.7990   37.0580  -25.5570 C.3   221  GLN221      0.1566
    115  C        127.8380   37.4900  -24.5270 C.2   221  GLN221      0.2260
    116  O        128.9770   37.0270  -24.5530 O.2   221  GLN221     -0.2867
    117  CB       126.0010   35.8440  -25.0910 C.3   221  GLN221      0.0367
    118  CG       124.8490   35.4960  -26.0530 C.3   221  GLN221      0.0905
    119  CD       124.1400   34.2000  -25.6930 C.2   221  GLN221      0.2608
    120  OE1      124.6040   33.4500  -24.8310 O.2   221  GLN221     -0.2717
    121  NE2      123.0110   33.9320  -26.3590 N.am  221  GLN221     -0.0878
    122  N        119.0710   40.4780  -19.8290 N.3   248  LYS248     -0.1301
    123  CA       118.9650   39.0740  -20.0970 C.3   248  LYS248      0.1247
    124  C        120.0640   38.1880  -19.5800 C.3   248  LYS248      0.2009
    125  O        121.1010   38.3930  -20.1850 O.3   248  LYS248     -0.2188
    126  CB       118.1940   38.6440  -21.3280 C.3   248  LYS248      0.0218
    127  CG       118.0680   37.1370  -21.4760 C.3   248  LYS248      0.0031
    128  CD       117.4450   36.8990  -22.8250 C.3   248  LYS248      0.0205
    129  CE       117.3200   35.3900  -23.0890 C.3   248  LYS248      0.1093
    130  NZ       116.5490   35.1490  -24.3700 N.3   248  LYS248     -0.1314
@<TRIPOS>BOND
     1    35    36    2
     2    35    34    1
     3    23    22    2
     4    22    21    1
     5    25    26    1
     6    28    27    2
     7    34    33    1
     8    34    37    1
     9    39    38    2
    10    26    27    1
    11    26    29    1
    12    20    21    1
    13    21    24    1
    14    38    37    1
    15    38    40   am
    16    15    14    2
    17    29    30    1
    18    14    13    1
    19    31    30   ar
    20    54    52   ar
    21    52    51    1
    22    52    53   ar
    23    30    32   ar
    24    51    48    1
    25    12    13    1
    26    13    16    1
    27    16    17    1
    28    19    17   ar
    29    48    49    1
    30    48    47    1
    31    17    18   ar
    32    50    49    2
    33     3     4    2
    34     3     2    1
    35    47    43   am
    36    99   102    1
    37    99    98    1
    38    99   100    1
    39    41    42    1
    40   102   103    1
    41    46    45    1
    42     2     1    1
    43     2     5    1
    44   100   101    2
    45    43    42    1
    46    43    44    2
    47    42    45    1
    48     5     6    1
    49     7     6   ar
    50     7     9   ar
    51   112   111    1
    52     6     8   ar
    53     9    11   ar
    54   111   110    1
    55   104   105    1
    56   110   109    1
    57   105   106    1
    58   105   108    1
    59    90    89    2
    60    84    86   ar
    61    84    82   ar
    62     8    10   ar
    63    86    85   ar
    64    11    10   ar
    65   107   106    2
    66   113   114    1
    67    63    62    1
    68   121   119   am
    69   109   108    1
    70   118   119    1
    71   118   117    1
    72    89    88    1
    73    82    81   ar
    74    85    83   ar
    75    88    91    1
    76    88    87    1
    77   119   120    2
    78    92    91    1
    79    92    93    1
    80    79    78    2
    81   114   117    1
    82   114   115    1
    83    62    61    1
    84    61    60    1
    85    94    93    1
    86    94    95    2
    87    83    81   ar
    88    81    80    1
    89    87    78   am
    90    78    77    1
    91    97    95    1
    92   116   115    2
    93    95    96    1
    94   130   129    1
    95    59    60    1
    96    59    56    1
    97    80    77    1
    98    77    76    1
    99    58    57    1
   100    56    55    1
   101    56    57    1
   102   129   128    1
   103   128   127    1
   104    71    73   ar
   105    71    69   ar
   106    73    74   ar
   107    67    66    2
   108    68    69    1
   109    68    65    1
   110    69    70   ar
   111    74    75    1
   112    74    72   ar
   113    70    72   ar
   114   127   126    1
   115   126   123    1
   116    66    65    1
   117    65    64    1
   118   125   124    1
   119   123   122    1
   120   123   124    1
