@<TRIPOS>MOLECULE
tmp/1gzgB01.pdb
 115 110 0 0 0
SMALL
GASTEIGER

@<TRIPOS>ATOM
      1  N        107.7210   32.7520  -29.6250 N.3    82  PHE82      -0.1241
      2  CA       108.8790   31.9550  -30.0020 C.3    82  PHE82       0.1605
      3  C        108.4250   30.7240  -30.7760 C.2    82  PHE82       0.2264
      4  O        107.9430   29.7640  -30.1990 O.2    82  PHE82      -0.2867
      5  CB       109.6770   31.5600  -28.7730 C.3    82  PHE82       0.0534
      6  CG       110.3170   32.7350  -28.1070 C.ar   82  PHE82      -0.0203
      7  CD1      111.4710   33.2770  -28.6320 C.ar   82  PHE82      -0.0042
      8  CD2      109.7090   33.3600  -27.0330 C.ar   82  PHE82      -0.0042
      9  CE1      112.0420   34.3880  -28.0490 C.ar   82  PHE82      -0.0003
     10  CE2      110.2870   34.4690  -26.4530 C.ar   82  PHE82      -0.0003
     11  CZ       111.4560   34.9700  -26.9670 C.ar   82  PHE82      -0.0000
     12  N        110.2680   37.6620  -32.2970 N.3   123  ASP123     -0.1239
     13  CA       111.6780   37.3650  -32.1040 C.3   123  ASP123      0.1674
     14  C        112.4460   37.4850  -33.4150 C.2   123  ASP123      0.2266
     15  O        112.1810   36.7640  -34.3820 O.2   123  ASP123     -0.2867
     16  CB       111.8180   35.9610  -31.5170 C.3   123  ASP123      0.1410
     17  CG       113.2540   35.6090  -31.1720 C.2   123  ASP123      0.3668
     18  OD1      113.9270   36.4280  -30.5100 O.co2 123  ASP123     -0.2456
     19  OD2      113.7830   34.5290  -31.5070 O.co2 123  ASP123     -0.2456
     20  N        116.8900   39.3430  -30.5240 N.3   171  SER171     -0.1217
     21  CA       117.4170   38.6040  -29.3650 C.3   171  SER171      0.1889
     22  C        118.8240   38.1010  -29.6450 C.2   171  SER171      0.2288
     23  O        119.3730   37.2680  -28.9220 O.2   171  SER171     -0.2866
     24  CB       116.5140   37.4110  -29.0370 C.3   171  SER171      0.2089
     25  OG       116.4360   36.5150  -30.1290 O.3   171  SER171     -0.2183
     26  N        117.4760   43.3770  -27.0740 N.3   198  TYR198     -0.1241
     27  CA       118.0910   42.5210  -26.0600 C.3   198  TYR198      0.1605
     28  C        119.4700   43.1600  -25.9340 C.2   198  TYR198      0.2264
     29  O        120.3830   42.8020  -26.6650 O.2   198  TYR198     -0.2867
     30  CB       118.2260   41.0920  -26.5450 C.3   198  TYR198      0.0534
     31  CG       116.9530   40.2830  -26.4820 C.ar  198  TYR198     -0.0201
     32  CD1      115.9040   40.5260  -27.3590 C.ar  198  TYR198     -0.0009
     33  CD2      116.8010   39.2680  -25.5530 C.ar  198  TYR198     -0.0009
     34  CE1      114.7500   39.7670  -27.3140 C.ar  198  TYR198      0.0417
     35  CE2      115.6520   38.5140  -25.5000 C.ar  198  TYR198      0.0417
     36  CZ       114.6330   38.7640  -26.3850 C.ar  198  TYR198      0.1957
     37  OH       113.4750   38.0090  -26.3400 O.3   198  TYR198     -0.2866
     38  N        122.6230   41.0320  -22.8450 N.3   201  LYS201     -0.1301
     39  CA       122.4920   39.6230  -23.1090 C.3   201  LYS201      0.1247
     40  C        123.6250   38.7130  -22.6820 C.3   201  LYS201      0.2009
     41  O        124.5930   38.8440  -23.4190 O.3   201  LYS201     -0.2188
     42  CB       121.6160   39.1540  -24.2640 C.3   201  LYS201      0.0218
     43  CG       121.3000   37.6690  -24.2210 C.3   201  LYS201      0.0031
     44  CD       120.5490   37.3310  -25.4830 C.3   201  LYS201      0.0205
     45  CE       120.1480   35.8480  -25.4860 C.3   201  LYS201      0.1093
     46  NZ       119.4000   35.4960  -26.7660 N.3   201  LYS201     -0.1314
     47  N        119.8360   29.4970  -19.7500 N.3   207  TYR207     -0.1241
     48  CA       119.0030   29.3060  -20.9340 C.3   207  TYR207      0.1605
     49  C        118.6950   27.8420  -21.2430 C.2   207  TYR207      0.2264
     50  O        117.9980   27.5610  -22.2090 O.2   207  TYR207     -0.2867
     51  CB       119.7030   29.8800  -22.1760 C.3   207  TYR207      0.0534
     52  CG       120.1130   31.3320  -22.0780 C.ar  207  TYR207     -0.0201
     53  CD1      119.2990   32.2680  -21.4820 C.ar  207  TYR207     -0.0009
     54  CD2      121.3190   31.7690  -22.6250 C.ar  207  TYR207     -0.0009
     55  CE1      119.6710   33.5910  -21.4090 C.ar  207  TYR207      0.0417
     56  CE2      121.6900   33.0900  -22.5650 C.ar  207  TYR207      0.0417
     57  CZ       120.8670   34.0010  -21.9560 C.ar  207  TYR207      0.1957
     58  OH       121.2340   35.3310  -21.8850 O.3   207  TYR207     -0.2866
     59  N        115.0610   26.5960  -22.2580 N.3   210  PHE210     -0.1241
     60  CA       114.5200   27.2470  -23.4550 C.3   210  PHE210      0.1605
     61  C        114.9380   26.4670  -24.6900 C.2   210  PHE210      0.2264
     62  O        114.1700   26.2940  -25.6170 O.2   210  PHE210     -0.2867
     63  CB       115.0580   28.6750  -23.5390 C.3   210  PHE210      0.0534
     64  CG       114.6490   29.4280  -24.7740 C.ar  210  PHE210     -0.0203
     65  CD1      115.4160   29.3730  -25.9240 C.ar  210  PHE210     -0.0042
     66  CD2      113.5220   30.2180  -24.7760 C.ar  210  PHE210     -0.0042
     67  CE1      115.0450   30.0900  -27.0390 C.ar  210  PHE210     -0.0003
     68  CE2      113.1550   30.9330  -25.8870 C.ar  210  PHE210     -0.0003
     69  CZ       113.9070   30.8580  -27.0260 C.ar  210  PHE210     -0.0000
     70  N        119.0710   40.4780  -19.8290 N.3   248  LYS248     -0.1301
     71  CA       118.9650   39.0740  -20.0970 C.3   248  LYS248      0.1247
     72  C        120.0640   38.1880  -19.5800 C.3   248  LYS248      0.2009
     73  O        121.1010   38.3930  -20.1850 O.3   248  LYS248     -0.2188
     74  CB       118.1940   38.6440  -21.3280 C.3   248  LYS248      0.0218
     75  CG       118.0680   37.1370  -21.4760 C.3   248  LYS248      0.0031
     76  CD       117.4450   36.8990  -22.8250 C.3   248  LYS248      0.0205
     77  CE       117.3200   35.3900  -23.0890 C.3   248  LYS248      0.1093
     78  NZ       116.5490   35.1490  -24.3700 N.3   248  LYS248     -0.1314
     79  N        114.2810   39.8240  -18.7140 N.3   271  TYR271     -0.1241
     80  CA       113.7940   38.4790  -18.9960 C.3   271  TYR271      0.1605
     81  C        114.1120   37.5190  -17.8390 C.2   271  TYR271      0.2264
     82  O        115.2640   37.2280  -17.5410 O.2   271  TYR271     -0.2867
     83  CB       114.4180   37.9890  -20.3120 C.3   271  TYR271      0.0534
     84  CG       113.5960   37.0020  -21.1270 C.ar  271  TYR271     -0.0201
     85  CD1      112.9930   35.9010  -20.5360 C.ar  271  TYR271     -0.0009
     86  CD2      113.4610   37.1640  -22.4880 C.ar  271  TYR271     -0.0009
     87  CE1      112.2620   34.9910  -21.2990 C.ar  271  TYR271      0.0417
     88  CE2      112.7530   36.2770  -23.2510 C.ar  271  TYR271      0.0417
     89  CZ       112.1440   35.1960  -22.6560 C.ar  271  TYR271      0.1957
     90  OH       111.4230   34.3040  -23.4390 O.3   271  TYR271     -0.2866
     91  N        114.3970   34.2090  -17.3280 N.3   273  VAL273     -0.1231
     92  CA       114.5570   33.1680  -18.3270 C.3   273  VAL273      0.1692
     93  C        114.1130   31.7850  -17.8780 C.2   273  VAL273      0.2592
     94  O        113.8170   31.5400  -16.7070 O.2   273  VAL273     -0.2718
     95  CB       115.9860   33.1220  -18.8790 C.3   273  VAL273      0.0266
     96  CG1      116.3520   34.4640  -19.5070 C.3   273  VAL273      0.0020
     97  CG2      116.9600   32.7190  -17.8070 C.3   273  VAL273      0.0020
     98  N        114.0370   30.9000  -18.8680 N.am  274  SER274     -0.1952
     99  CA       113.5970   29.5250  -18.7010 C.3   274  SER274      0.1924
    100  C        114.2180   28.8470  -17.4830 C.2   274  SER274      0.2314
    101  O        113.5200   28.1970  -16.7000 O.2   274  SER274     -0.2863
    102  CB       113.9310   28.7460  -19.9790 C.3   274  SER274      0.2116
    103  OG       115.3120   28.7880  -20.2720 O.3   274  SER274     -0.2180
    104  N        107.6600   33.4610  -17.6940 N.3   312  TYR312     -0.1241
    105  CA       106.7840   32.3090  -17.9500 C.3   312  TYR312      0.1605
    106  C        105.7290   32.1430  -16.8330 C.2   312  TYR312      0.2264
    107  O        104.7690   31.3600  -16.9760 O.2   312  TYR312     -0.2867
    108  CB       107.6320   31.0450  -18.1420 C.3   312  TYR312      0.0534
    109  CG       108.6430   31.1840  -19.2540 C.ar  312  TYR312     -0.0201
    110  CD1      108.2760   30.9960  -20.5940 C.ar  312  TYR312     -0.0009
    111  CD2      109.9580   31.5400  -18.9770 C.ar  312  TYR312     -0.0009
    112  CE1      109.1900   31.1450  -21.6120 C.ar  312  TYR312      0.0417
    113  CE2      110.8910   31.6890  -20.0000 C.ar  312  TYR312      0.0417
    114  CZ       110.4930   31.5100  -21.3170 C.ar  312  TYR312      0.1957
    115  OH       111.4060   31.6800  -22.3320 O.3   312  TYR312     -0.2866
@<TRIPOS>BOND
     1    15    14    2
     2    14    13    1
     3    12    13    1
     4    13    16    1
     5    16    17    1
     6    19    17   ar
     7    17    18   ar
     8     3     4    2
     9     3     2    1
    10    20    21    1
    11    25    24    1
    12     2     1    1
    13     2     5    1
    14    22    21    1
    15    22    23    2
    16    21    24    1
    17     5     6    1
    18     7     6   ar
    19     7     9   ar
    20     6     8   ar
    21     9    11   ar
    22    32    34   ar
    23    32    31   ar
    24    34    36   ar
    25    26    27    1
    26    67    69   ar
    27    67    65   ar
    28     8    10   ar
    29    69    68   ar
    30    11    10   ar
    31    46    45    1
    32    29    28    2
    33    30    31    1
    34    30    27    1
    35    31    33   ar
    36    36    37    1
    37    36    35   ar
    38    27    28    1
    39    65    64   ar
    40    68    66   ar
    41    62    61    2
    42    33    35   ar
    43    45    44    1
    44    44    43    1
    45    66    64   ar
    46    64    63    1
    47    61    60    1
    48    78    77    1
    49    42    43    1
    50    42    39    1
    51    63    60    1
    52    60    59    1
    53    90    89    1
    54    41    40    1
    55    88    89   ar
    56    88    86   ar
    57    39    38    1
    58    39    40    1
    59    77    76    1
    60    76    75    1
    61    89    87   ar
    62    54    56   ar
    63    54    52   ar
    64    56    57   ar
    65    86    84   ar
    66   115   114    1
    67    50    49    2
    68    51    52    1
    69    51    48    1
    70    52    53   ar
    71    57    58    1
    72    57    55   ar
    73   112   114   ar
    74   112   110   ar
    75    53    55   ar
    76    75    74    1
    77    74    71    1
    78   114   113   ar
    79    87    85   ar
    80    49    48    1
    81    84    85   ar
    82    84    83    1
    83    48    47    1
    84   110   109   ar
    85    83    80    1
    86   103   102    1
    87    73    72    1
    88    71    70    1
    89    71    72    1
    90   113   111   ar
    91   102    99    1
    92    96    95    1
    93   109   111   ar
    94   109   108    1
    95    80    79    1
    96    80    81    1
    97    95    92    1
    98    95    97    1
    99    98    99    1
   100    98    93   am
   101    99   100    1
   102    92    93    1
   103    92    91    1
   104   108   105    1
   105   105   104    1
   106   105   106    1
   107    93    94    2
   108    81    82    2
   109   100   101    2
   110   107   106    2
