@<TRIPOS>MOLECULE
tmp/1gzgB02.pdb
 149 141 0 0 0
SMALL
GASTEIGER

@<TRIPOS>ATOM
      1  N        107.7210   32.7520  -29.6250 N.3    82  PHE82      -0.1241
      2  CA       108.8790   31.9550  -30.0020 C.3    82  PHE82       0.1605
      3  C        108.4250   30.7240  -30.7760 C.2    82  PHE82       0.2264
      4  O        107.9430   29.7640  -30.1990 O.2    82  PHE82      -0.2867
      5  CB       109.6770   31.5600  -28.7730 C.3    82  PHE82       0.0534
      6  CG       110.3170   32.7350  -28.1070 C.ar   82  PHE82      -0.0203
      7  CD1      111.4710   33.2770  -28.6320 C.ar   82  PHE82      -0.0042
      8  CD2      109.7090   33.3600  -27.0330 C.ar   82  PHE82      -0.0042
      9  CE1      112.0420   34.3880  -28.0490 C.ar   82  PHE82      -0.0003
     10  CE2      110.2870   34.4690  -26.4530 C.ar   82  PHE82      -0.0003
     11  CZ       111.4560   34.9700  -26.9670 C.ar   82  PHE82      -0.0000
     12  N        110.2680   37.6620  -32.2970 N.3   123  ASP123     -0.1239
     13  CA       111.6780   37.3650  -32.1040 C.3   123  ASP123      0.1674
     14  C        112.4460   37.4850  -33.4150 C.2   123  ASP123      0.2266
     15  O        112.1810   36.7640  -34.3820 O.2   123  ASP123     -0.2867
     16  CB       111.8180   35.9610  -31.5170 C.3   123  ASP123      0.1410
     17  CG       113.2540   35.6090  -31.1720 C.2   123  ASP123      0.3668
     18  OD1      113.9270   36.4280  -30.5100 O.co2 123  ASP123     -0.2456
     19  OD2      113.7830   34.5290  -31.5070 O.co2 123  ASP123     -0.2456
     20  N        115.6780   36.7520  -35.0160 N.3   125  ALA125     -0.1245
     21  CA       116.8200   35.8720  -34.8390 C.3   125  ALA125      0.1562
     22  C        116.7410   34.8090  -35.9250 C.2   125  ALA125      0.2260
     23  O        115.6820   34.5780  -36.5010 O.2   125  ALA125     -0.2867
     24  CB       116.8030   35.2410  -33.4720 C.3   125  ALA125      0.0290
     25  N        118.7070   31.6880  -35.6780 N.3   127  ASP127     -0.1225
     26  CA       118.9910   30.3740  -35.1920 C.3   127  ASP127      0.1790
     27  C        117.7870   29.3980  -35.1790 C.2   127  ASP127      0.2439
     28  O        118.0110   28.2480  -35.5490 O.2   127  ASP127     -0.2733
     29  CB       119.6900   30.4690  -33.8580 C.3   127  ASP127      0.1423
     30  CG       118.8750   31.2120  -32.8540 C.2   127  ASP127      0.3668
     31  OD1      118.4310   32.3320  -33.1890 O.co2 127  ASP127     -0.2456
     32  OD2      118.6040   30.7570  -31.7270 O.co2 127  ASP127     -0.2456
     33  N        116.5470   29.8230  -34.8820 N.am  128  PRO128     -0.2729
     34  CA       115.4240   28.8810  -34.8800 C.3   128  PRO128      0.1401
     35  C        115.1880   28.3760  -36.2830 C.2   128  PRO128      0.2269
     36  O        114.4230   27.4410  -36.5030 O.2   128  PRO128     -0.2865
     37  CB       114.2270   29.7290  -34.4290 C.3   128  PRO128      0.0296
     38  CG       114.7960   30.9640  -33.8930 C.3   128  PRO128      0.0237
     39  CD       116.0620   31.1990  -34.6630 C.3   128  PRO128      0.0939
     40  N        122.8650   31.7260  -35.1540 N.3   135  ASN135     -0.1240
     41  CA       122.2890   33.0150  -35.4940 C.3   135  ASN135      0.1653
     42  C        123.0740   33.7380  -36.5410 C.2   135  ASN135      0.2266
     43  O        123.4820   34.8830  -36.3570 O.2   135  ASN135     -0.2867
     44  CB       122.2200   33.9290  -34.2880 C.3   135  ASN135      0.1155
     45  CG       121.1350   34.9710  -34.4290 C.2   135  ASN135      0.2627
     46  OD1      120.5150   35.1010  -35.4870 O.2   135  ASN135     -0.2716
     47  ND2      120.8910   35.7100  -33.3640 N.am  135  ASN135     -0.0877
     48  N        116.8900   39.3430  -30.5240 N.3   171  SER171     -0.1202
     49  CA       117.4170   38.6040  -29.3650 C.3   171  SER171      0.2020
     50  C        118.8240   38.1010  -29.6450 C.2   171  SER171      0.2618
     51  O        119.3730   37.2680  -28.9220 O.2   171  SER171     -0.2717
     52  CB       116.5140   37.4110  -29.0370 C.3   171  SER171      0.2103
     53  OG       116.4360   36.5150  -30.1290 O.3   171  SER171     -0.2182
     54  N        119.4320   38.6370  -30.7010 N.am  172  ASP172     -0.1973
     55  CA       120.7200   38.1600  -31.2400 C.3   172  ASP172      0.1709
     56  C        122.1060   38.5480  -30.7110 C.2   172  ASP172      0.2293
     57  O        123.0450   37.7710  -30.9090 O.2   172  ASP172     -0.2864
     58  CB       120.7700   38.5710  -32.6960 C.3   172  ASP172      0.1436
     59  CG       120.6690   40.0690  -32.8650 C.2   172  ASP172      0.3671
     60  OD1      119.5550   40.6100  -32.6900 O.co2 172  ASP172     -0.2456
     61  OD2      121.6530   40.7860  -33.1420 O.co2 172  ASP172     -0.2456
     62  N        122.6230   41.0320  -22.8450 N.3   201  LYS201     -0.1301
     63  CA       122.4920   39.6230  -23.1090 C.3   201  LYS201      0.1247
     64  C        123.6250   38.7130  -22.6820 C.3   201  LYS201      0.2009
     65  O        124.5930   38.8440  -23.4190 O.3   201  LYS201     -0.2188
     66  CB       121.6160   39.1540  -24.2640 C.3   201  LYS201      0.0218
     67  CG       121.3000   37.6690  -24.2210 C.3   201  LYS201      0.0031
     68  CD       120.5490   37.3310  -25.4830 C.3   201  LYS201      0.0205
     69  CE       120.1480   35.8480  -25.4860 C.3   201  LYS201      0.1093
     70  NZ       119.4000   35.4960  -26.7660 N.3   201  LYS201     -0.1314
     71  N        119.8360   29.4970  -19.7500 N.3   207  TYR207     -0.1241
     72  CA       119.0030   29.3060  -20.9340 C.3   207  TYR207      0.1605
     73  C        118.6950   27.8420  -21.2430 C.2   207  TYR207      0.2264
     74  O        117.9980   27.5610  -22.2090 O.2   207  TYR207     -0.2867
     75  CB       119.7030   29.8800  -22.1760 C.3   207  TYR207      0.0534
     76  CG       120.1130   31.3320  -22.0780 C.ar  207  TYR207     -0.0201
     77  CD1      119.2990   32.2680  -21.4820 C.ar  207  TYR207     -0.0009
     78  CD2      121.3190   31.7690  -22.6250 C.ar  207  TYR207     -0.0009
     79  CE1      119.6710   33.5910  -21.4090 C.ar  207  TYR207      0.0417
     80  CE2      121.6900   33.0900  -22.5650 C.ar  207  TYR207      0.0417
     81  CZ       120.8670   34.0010  -21.9560 C.ar  207  TYR207      0.1957
     82  OH       121.2340   35.3310  -21.8850 O.3   207  TYR207     -0.2866
     83  N        115.0610   26.5960  -22.2580 N.3   210  PHE210     -0.1227
     84  CA       114.5200   27.2470  -23.4550 C.3   210  PHE210      0.1736
     85  C        114.9380   26.4670  -24.6900 C.2   210  PHE210      0.2595
     86  O        114.1700   26.2940  -25.6170 O.2   210  PHE210     -0.2718
     87  CB       115.0580   28.6750  -23.5390 C.3   210  PHE210      0.0547
     88  CG       114.6490   29.4280  -24.7740 C.ar  210  PHE210     -0.0202
     89  CD1      115.4160   29.3730  -25.9240 C.ar  210  PHE210     -0.0042
     90  CD2      113.5220   30.2180  -24.7760 C.ar  210  PHE210     -0.0042
     91  CE1      115.0450   30.0900  -27.0390 C.ar  210  PHE210     -0.0003
     92  CE2      113.1550   30.9330  -25.8870 C.ar  210  PHE210     -0.0003
     93  CZ       113.9070   30.8580  -27.0260 C.ar  210  PHE210     -0.0000
     94  N        116.1680   25.9870  -24.6980 N.am  211  ARG211     -0.1980
     95  CA       116.6510   25.2150  -25.8240 C.3   211  ARG211      0.1597
     96  C        115.8200   23.9360  -25.9930 C.2   211  ARG211      0.2287
     97  O        115.5810   23.4800  -27.1180 O.2   211  ARG211     -0.2864
     98  CB       118.1310   24.9480  -25.6520 C.3   211  ARG211      0.0334
     99  CG       118.9120   26.2470  -25.6770 C.3   211  ARG211      0.0492
    100  CD       120.3060   26.1400  -25.1350 C.3   211  ARG211      0.2205
    101  NE       121.0020   27.4220  -25.2000 N.pl3 211  ARG211     -0.0865
    102  CZ       122.1090   27.6950  -24.5310 C.cat 211  ARG211      0.5346
    103  NH1      122.6450   26.7770  -23.7400 N.pl3 211  ARG211      0.1354
    104  NH2      122.6820   28.8850  -24.6480 N.pl3 211  ARG211      0.1354
    105  N        116.2390   23.5860  -30.1210 N.3   216  SER216     -0.1217
    106  CA       117.5180   24.0590  -30.6480 C.3   216  SER216      0.1889
    107  C        118.6810   23.3420  -29.9700 C.2   216  SER216      0.2288
    108  O        118.4820   22.4740  -29.1110 O.2   216  SER216     -0.2866
    109  CB       117.6610   25.5720  -30.4700 C.3   216  SER216      0.2089
    110  OG       117.9490   25.9120  -29.1230 O.3   216  SER216     -0.2183
    111  N        128.8420   30.8610  -27.4890 N.3   217  LYS217     -0.1245
    112  CA       128.0110   32.0060  -27.1550 C.3   217  LYS217      0.1561
    113  C        128.8840   33.1590  -26.6770 C.2   217  LYS217      0.2260
    114  O        128.5510   34.3310  -26.8540 O.2   217  LYS217     -0.2867
    115  CB       127.0540   31.6220  -26.0250 C.3   217  LYS217      0.0271
    116  CG       126.1310   30.4520  -26.3520 C.3   217  LYS217      0.0035
    117  CD       125.0420   30.8710  -27.3170 C.3   217  LYS217      0.0206
    118  CE       124.1710   29.7000  -27.7280 C.3   217  LYS217      0.1093
    119  NZ       123.0520   30.1570  -28.5990 N.3   217  LYS217     -0.1314
    120  N        129.6070   36.3440  -28.7120 N.3   220  TYR220     -0.1227
    121  CA       128.5780   37.3590  -28.9370 C.3   220  TYR220      0.1736
    122  C        127.8060   37.7390  -27.6680 C.2   220  TYR220      0.2595
    123  O        127.5350   38.9210  -27.4590 O.2   220  TYR220     -0.2718
    124  CB       127.6570   37.0270  -30.1330 C.3   220  TYR220      0.0548
    125  CG       127.0560   35.6480  -30.1740 C.ar  220  TYR220     -0.0200
    126  CD1      127.8020   34.5500  -30.5910 C.ar  220  TYR220     -0.0009
    127  CD2      125.7200   35.4500  -29.8580 C.ar  220  TYR220     -0.0009
    128  CE1      127.2470   33.2930  -30.6440 C.ar  220  TYR220      0.0417
    129  CE2      125.1580   34.1880  -29.9070 C.ar  220  TYR220      0.0417
    130  CZ       125.9280   33.1190  -30.3040 C.ar  220  TYR220      0.1957
    131  OH       125.3690   31.8670  -30.3640 O.3   220  TYR220     -0.2866
    132  N        127.4920   36.7700  -26.8050 N.am  221  GLN221     -0.1979
    133  CA       126.7990   37.0580  -25.5570 C.3   221  GLN221      0.1601
    134  C        127.8380   37.4900  -24.5270 C.2   221  GLN221      0.2287
    135  O        128.9770   37.0270  -24.5530 O.2   221  GLN221     -0.2864
    136  CB       126.0010   35.8440  -25.0910 C.3   221  GLN221      0.0394
    137  CG       124.8490   35.4960  -26.0530 C.3   221  GLN221      0.0908
    138  CD       124.1400   34.2000  -25.6930 C.2   221  GLN221      0.2608
    139  OE1      124.6040   33.4500  -24.8310 O.2   221  GLN221     -0.2717
    140  NE2      123.0110   33.9320  -26.3590 N.am  221  GLN221     -0.0878
    141  N        119.0710   40.4780  -19.8290 N.3   248  LYS248     -0.1301
    142  CA       118.9650   39.0740  -20.0970 C.3   248  LYS248      0.1247
    143  C        120.0640   38.1880  -19.5800 C.3   248  LYS248      0.2009
    144  O        121.1010   38.3930  -20.1850 O.3   248  LYS248     -0.2188
    145  CB       118.1940   38.6440  -21.3280 C.3   248  LYS248      0.0218
    146  CG       118.0680   37.1370  -21.4760 C.3   248  LYS248      0.0031
    147  CD       117.4450   36.8990  -22.8250 C.3   248  LYS248      0.0205
    148  CE       117.3200   35.3900  -23.0890 C.3   248  LYS248      0.1093
    149  NZ       116.5490   35.1490  -24.3700 N.3   248  LYS248     -0.1314
@<TRIPOS>BOND
     1    42    43    2
     2    42    41    1
     3    36    35    2
     4    23    22    2
     5    35    34    1
     6    22    21    1
     7    25    26    1
     8    28    27    2
     9    41    40    1
    10    41    44    1
    11    46    45    2
    12    26    27    1
    13    26    29    1
    14    27    33   am
    15    20    21    1
    16    33    34    1
    17    33    39    1
    18    34    37    1
    19    21    24    1
    20    39    38    1
    21    37    38    1
    22    45    44    1
    23    45    47   am
    24    15    14    2
    25    29    30    1
    26    14    13    1
    27    31    30   ar
    28    61    59   ar
    29    59    58    1
    30    59    60   ar
    31    30    32   ar
    32    58    55    1
    33    12    13    1
    34    13    16    1
    35    16    17    1
    36    19    17   ar
    37    55    56    1
    38    55    54    1
    39    17    18   ar
    40    57    56    2
    41     3     4    2
    42     3     2    1
    43    54    50   am
    44   106   109    1
    45   106   105    1
    46   106   107    1
    47   128   126   ar
    48   128   130   ar
    49   126   125   ar
    50    48    49    1
    51   109   110    1
    52   131   130    1
    53   130   129   ar
    54   125   124    1
    55   125   127   ar
    56   124   121    1
    57    53    52    1
    58     2     1    1
    59     2     5    1
    60   107   108    2
    61   129   127   ar
    62    50    49    1
    63    50    51    2
    64    49    52    1
    65   121   120    1
    66   121   122    1
    67     5     6    1
    68     7     6   ar
    69     7     9   ar
    70   119   118    1
    71     6     8   ar
    72     9    11   ar
    73   118   117    1
    74   122   123    2
    75   122   132   am
    76   111   112    1
    77   117   116    1
    78   112   113    1
    79   112   115    1
    80    97    96    2
    81    91    93   ar
    82    91    89   ar
    83     8    10   ar
    84    93    92   ar
    85    11    10   ar
    86   114   113    2
    87   132   133    1
    88    70    69    1
    89   140   138   am
    90   116   115    1
    91   137   138    1
    92   137   136    1
    93    96    95    1
    94    89    88   ar
    95    92    90   ar
    96    95    98    1
    97    95    94    1
    98   138   139    2
    99    99    98    1
   100    99   100    1
   101    86    85    2
   102   133   136    1
   103   133   134    1
   104    69    68    1
   105    68    67    1
   106   101   100    1
   107   101   102    2
   108    90    88   ar
   109    88    87    1
   110    94    85   am
   111    85    84    1
   112   104   102    1
   113   135   134    2
   114   102   103    1
   115   149   148    1
   116    66    67    1
   117    66    63    1
   118    87    84    1
   119    84    83    1
   120    65    64    1
   121    63    62    1
   122    63    64    1
   123   148   147    1
   124   147   146    1
   125    78    80   ar
   126    78    76   ar
   127    80    81   ar
   128    74    73    2
   129    75    76    1
   130    75    72    1
   131    76    77   ar
   132    81    82    1
   133    81    79   ar
   134    77    79   ar
   135   146   145    1
   136   145   142    1
   137    73    72    1
   138    72    71    1
   139   144   143    1
   140   142   141    1
   141   142   143    1
