@<TRIPOS>MOLECULE
tmp/1gzmB06.pdb
 77 71 0 0 0
SMALL
GASTEIGER

@<TRIPOS>ATOM
      1  N         -2.8160    1.9320    8.7650 N.3    49  MET49      -0.1230
      2  CA        -4.0950    2.5410    9.1000 C.3    49  MET49       0.1702
      3  C         -4.1510    4.0590    8.8770 C.2    49  MET49       0.2592
      4  O         -5.2360    4.6220    8.7500 O.2    49  MET49      -0.2718
      5  CB        -4.4960    2.1940   10.5320 C.3    49  MET49       0.0401
      6  CG        -4.7530    0.7090   10.7610 C.3    49  MET49       0.0596
      7  SD        -5.6040   -0.1470    9.3880 S.3    49  MET49      -0.1393
      8  CE        -6.9230    1.0840    8.9320 C.3    49  MET49       0.0692
      9  N         -2.9970    4.7240    8.8350 N.am   50  LEU50      -0.1980
     10  CA        -2.9690    6.1610    8.5790 C.3    50  LEU50       0.1596
     11  C         -2.8090    6.3790    7.0820 C.2    50  LEU50       0.2287
     12  O         -3.5140    7.1890    6.4800 O.2    50  LEU50      -0.2864
     13  CB        -1.7970    6.8330    9.2950 C.3    50  LEU50       0.0297
     14  CG        -2.0890    7.5720   10.6010 C.3    50  LEU50       0.0022
     15  CD1       -0.7850    7.9450   11.2910 C.3    50  LEU50       0.0001
     16  CD2       -2.9290    8.8070   10.3010 C.3    50  LEU50       0.0001
     17  N         -6.1590    5.5670    4.5880 N.3    53  PRO53      -0.2102
     18  CA        -7.1330    6.6450    4.4670 C.3    53  PRO53       0.1504
     19  C         -6.6490    8.0070    3.9750 C.2    53  PRO53       0.2575
     20  O         -7.3530    8.6260    3.1880 O.2    53  PRO53      -0.2718
     21  CB        -7.7530    6.7110    5.8620 C.3    53  PRO53       0.0282
     22  CG        -6.6620    6.2320    6.7450 C.3    53  PRO53       0.0208
     23  CD        -6.1050    5.0730    5.9750 C.3    53  PRO53       0.0893
     24  N         -5.4780    8.4940    4.3960 N.am   54  ILE54      -0.1980
     25  CA        -5.0730    9.8240    3.9270 C.3    54  ILE54       0.1595
     26  C         -4.7160    9.8800    2.4510 C.2    54  ILE54       0.2287
     27  O         -4.9150   10.9100    1.7970 O.2    54  ILE54      -0.2864
     28  CB        -3.8830   10.4400    4.7160 C.3    54  ILE54       0.0276
     29  CG1       -2.6310    9.5960    4.5390 C.3    54  ILE54       0.0022
     30  CG2       -4.2310   10.5730    6.1730 C.3    54  ILE54       0.0022
     31  CD1       -1.4010   10.2210    5.1800 C.3    54  ILE54       0.0001
     32  N         -8.0790    9.2830    0.4160 N.3    57  LEU57      -0.1245
     33  CA        -8.8310   10.5280    0.5610 C.3    57  LEU57       0.1561
     34  C         -8.2720   11.5650   -0.4040 C.2    57  LEU57       0.2260
     35  O         -9.0190   12.2160   -1.1300 O.2    57  LEU57      -0.2867
     36  CB        -8.7420   11.0340    2.0140 C.3    57  LEU57       0.0270
     37  CG        -9.6910   12.1290    2.5290 C.3    57  LEU57       0.0019
     38  CD1       -9.1020   13.5050    2.2930 C.3    57  LEU57       0.0001
     39  CD2      -11.0430   11.9870    1.8550 C.3    57  LEU57       0.0001
     40  N         -2.5080   18.7840    2.7260 N.3   307  ILE307     -0.1245
     41  CA        -3.7180   19.2230    3.3940 C.3   307  ILE307      0.1561
     42  C         -3.4470   20.4480    4.2590 C.2   307  ILE307      0.2260
     43  O         -4.2340   21.3970    4.2540 O.2   307  ILE307     -0.2867
     44  CB        -4.2960   18.0880    4.2740 C.3   307  ILE307      0.0252
     45  CG1       -4.7690   16.9330    3.3820 C.3   307  ILE307      0.0019
     46  CG2       -5.4210   18.6170    5.1450 C.3   307  ILE307      0.0019
     47  CD1       -5.1640   15.6770    4.1410 C.3   307  ILE307      0.0001
     48  N        -11.3800   19.2980    0.4230 N.3   317  MET317     -0.1245
     49  CA       -11.4530   18.1190    1.2710 C.3   317  MET317      0.1570
     50  C        -12.6030   18.2280    2.2670 C.2   317  MET317      0.2261
     51  O        -13.4410   17.3370    2.3510 O.2   317  MET317     -0.2867
     52  CB       -10.1410   17.9240    2.0200 C.3   317  MET317      0.0387
     53  CG       -10.1200   16.6530    2.8200 C.3   317  MET317      0.0595
     54  SD        -8.7140   16.5720    3.8890 S.3   317  MET317     -0.1393
     55  CE        -9.3240   17.4630    5.3330 C.3   317  MET317      0.0692
     56  N        -15.8080   15.8200    2.4560 N.3   321  LEU321     -0.1231
     57  CA       -16.1640   15.1360    3.6920 C.3   321  LEU321      0.1693
     58  C        -17.4350   15.6370    4.3690 C.2   321  LEU321      0.2592
     59  O        -18.0400   14.9200    5.1630 O.2   321  LEU321     -0.2718
     60  CB       -14.9980   15.2060    4.6780 C.3   321  LEU321      0.0284
     61  CG       -13.7410   14.4160    4.2940 C.3   321  LEU321      0.0019
     62  CD1      -12.6340   14.7250    5.2840 C.3   321  LEU321      0.0001
     63  CD2      -14.0430   12.9210    4.2590 C.3   321  LEU321      0.0001
     64  N        -17.8460   16.8620    4.0690 N.am  322  CYS322     -0.1970
     65  CA       -19.0570   17.3890    4.6830 C.3   322  CYS322      0.1712
     66  C        -20.2390   17.3580    3.7220 C.2   322  CYS322      0.2296
     67  O        -21.3560   17.7280    4.0820 O.2   322  CYS322     -0.2864
     68  CB       -18.8180   18.8130    5.1880 C.3   322  CYS322      0.0983
     69  SG       -17.5200   18.8170    6.4410 S.3   322  CYS322     -0.0798
     70  N        -18.3260   23.5320    3.5680 N.3   326  ASN326     -0.1240
     71  CA       -17.5570   23.6100    4.8090 C.3   326  ASN326      0.1653
     72  C        -18.4920   23.6270    6.0160 C.2   326  ASN326      0.2266
     73  O        -18.1730   23.0820    7.0730 O.2   326  ASN326     -0.2867
     74  CB       -16.6960   24.8830    4.8010 C.3   326  ASN326      0.1155
     75  CG       -15.8650   25.0500    6.0700 C.2   326  ASN326      0.2627
     76  OD1      -16.3940   25.0510    7.1830 O.2   326  ASN326     -0.2716
     77  ND2      -14.5550   25.2060    5.9020 N.am  326  ASN326     -0.0877
@<TRIPOS>BOND
     1    35    34    2
     2    34    33    1
     3    32    33    1
     4    48    49    1
     5    33    36    1
     6    49    52    1
     7    49    50    1
     8    27    26    2
     9    39    37    1
    10    36    37    1
    11    52    53    1
    12    50    51    2
    13    38    37    1
    14    26    25    1
    15    56    57    1
    16    40    41    1
    17    53    54    1
    18    20    19    2
    19    45    47    1
    20    45    44    1
    21    41    42    1
    22    41    44    1
    23    70    71    1
    24    57    58    1
    25    57    60    1
    26    66    67    2
    27    66    65    1
    28    54    55    1
    29    25    24    1
    30    25    28    1
    31    19    24   am
    32    19    18    1
    33    64    58   am
    34    64    65    1
    35    43    42    2
    36    63    61    1
    37    44    46    1
    38    61    60    1
    39    61    62    1
    40    58    59    2
    41    18    17    1
    42    18    21    1
    43    29    28    1
    44    29    31    1
    45    17    23    1
    46    65    68    1
    47    28    30    1
    48    74    71    1
    49    74    75    1
    50    71    72    1
    51    68    69    1
    52    21    22    1
    53    77    75   am
    54    23    22    1
    55    72    73    2
    56    75    76    2
    57    12    11    2
    58    11    10    1
    59    10     9    1
    60    10    13    1
    61     4     3    2
    62     1     2    1
    63     9     3   am
    64     3     2    1
    65     8     7    1
    66     2     5    1
    67    13    14    1
    68     7     6    1
    69    16    14    1
    70     5     6    1
    71    14    15    1
