@<TRIPOS>MOLECULE
tmp/1gzmB02.pdb
 90 82 0 0 0
SMALL
GASTEIGER

@<TRIPOS>ATOM
      1  N         -2.9970    4.7240    8.8350 N.3    50  LEU50      -0.1245
      2  CA        -2.9690    6.1610    8.5790 C.3    50  LEU50       0.1561
      3  C         -2.8090    6.3790    7.0820 C.2    50  LEU50       0.2260
      4  O         -3.5140    7.1890    6.4800 O.2    50  LEU50      -0.2867
      5  CB        -1.7970    6.8330    9.2950 C.3    50  LEU50       0.0270
      6  CG        -2.0890    7.5720   10.6010 C.3    50  LEU50       0.0019
      7  CD1       -0.7850    7.9450   11.2910 C.3    50  LEU50       0.0001
      8  CD2       -2.9290    8.8070   10.3010 C.3    50  LEU50       0.0001
      9  N         -5.4780    8.4940    4.3960 N.3    54  ILE54      -0.1245
     10  CA        -5.0730    9.8240    3.9270 C.3    54  ILE54       0.1561
     11  C         -4.7160    9.8800    2.4510 C.2    54  ILE54       0.2260
     12  O         -4.9150   10.9100    1.7970 O.2    54  ILE54      -0.2867
     13  CB        -3.8830   10.4400    4.7160 C.3    54  ILE54       0.0252
     14  CG1       -2.6310    9.5960    4.5390 C.3    54  ILE54       0.0019
     15  CG2       -4.2310   10.5730    6.1730 C.3    54  ILE54       0.0019
     16  CD1       -1.4010   10.2210    5.1800 C.3    54  ILE54       0.0001
     17  N         -0.3400   14.8420    4.1140 N.3   304  VAL304     -0.1245
     18  CA        -0.5010   15.6620    5.3050 C.3   304  VAL304      0.1561
     19  C          0.0480   17.0830    5.0960 C.2   304  VAL304      0.2260
     20  O         -0.6290   18.0580    5.4200 O.2   304  VAL304     -0.2867
     21  CB         0.1960   15.0020    6.5040 C.3   304  VAL304      0.0252
     22  CG1       -0.0140   15.8250    7.7610 C.3   304  VAL304      0.0019
     23  CG2       -0.3510   13.6120    6.6980 C.3   304  VAL304      0.0019
     24  N         -2.5080   18.7840    2.7260 N.3   307  ILE307     -0.1231
     25  CA        -3.7180   19.2230    3.3940 C.3   307  ILE307      0.1692
     26  C         -3.4470   20.4480    4.2590 C.2   307  ILE307      0.2591
     27  O         -4.2340   21.3970    4.2540 O.2   307  ILE307     -0.2718
     28  CB        -4.2960   18.0880    4.2740 C.3   307  ILE307      0.0266
     29  CG1       -4.7690   16.9330    3.3820 C.3   307  ILE307      0.0019
     30  CG2       -5.4210   18.6170    5.1450 C.3   307  ILE307      0.0020
     31  CD1       -5.1640   15.6770    4.1410 C.3   307  ILE307      0.0001
     32  N         -2.3220   20.4400    4.9760 N.am  308  MET308     -0.1979
     33  CA        -1.9830   21.5450    5.8660 C.3   308  MET308      0.1605
     34  C         -1.4310   22.8070    5.2170 C.2   308  MET308      0.2287
     35  O         -1.4750   23.8680    5.8230 O.2   308  MET308     -0.2864
     36  CB        -0.9920   21.0880    6.9520 C.3   308  MET308      0.0413
     37  CG        -1.5630   20.1390    8.0160 C.3   308  MET308      0.0598
     38  SD        -3.1340   20.6490    8.8380 S.3   308  MET308     -0.1393
     39  CE        -2.5990   22.0070    9.8740 C.3   308  MET308      0.0692
     40  N         -4.5420   25.6040    0.9910 N.3   311  LYS311     -0.1245
     41  CA        -5.9100   25.9700    1.3430 C.3   311  LYS311      0.1561
     42  C         -6.9650   25.4620    0.3850 C.2   311  LYS311      0.2260
     43  O         -8.0230   25.0060    0.8100 O.2   311  LYS311     -0.2867
     44  CB        -6.0150   27.4860    1.4780 C.3   311  LYS311      0.0271
     45  CG        -7.3780   27.9860    1.8920 C.3   311  LYS311      0.0035
     46  CD        -7.2710   29.4030    2.4390 C.3   311  LYS311      0.0206
     47  CE        -8.5170   30.2180    2.1290 C.3   311  LYS311      0.1093
     48  NZ        -8.6830   30.4370    0.6550 N.3   311  LYS311     -0.1314
     49  N         -7.3340   21.8300    0.9220 N.3   314  ARG314     -0.1231
     50  CA        -7.9480   21.6140    2.2210 C.3   314  ARG314      0.1694
     51  C         -9.4650   21.8490    2.1670 C.2   314  ARG314      0.2592
     52  O        -10.2560   20.9780    2.5610 O.2   314  ARG314     -0.2718
     53  CB        -7.2920   22.5130    3.2740 C.3   314  ARG314      0.0321
     54  CG        -7.7130   22.1570    4.6960 C.3   314  ARG314      0.0489
     55  CD        -6.8600   22.8290    5.7610 C.3   314  ARG314      0.2205
     56  NE        -6.8120   24.2820    5.6190 N.pl3 314  ARG314     -0.0865
     57  CZ        -5.8020   24.9550    5.0650 C.cat 314  ARG314      0.5346
     58  NH1       -4.7310   24.3170    4.5940 N.pl3 314  ARG314      0.1354
     59  NH2       -5.8630   26.2800    4.9750 N.pl3 314  ARG314      0.1354
     60  N         -9.8680   23.0140    1.6560 N.am  315  ASN315     -0.1974
     61  CA       -11.2810   23.3650    1.5500 C.3   315  ASN315      0.1688
     62  C        -12.0590   22.3410    0.7430 C.2   315  ASN315      0.2292
     63  O        -13.1620   21.9620    1.1180 O.2   315  ASN315     -0.2864
     64  CB       -11.4310   24.7500    0.9230 C.3   315  ASN315      0.1181
     65  CG       -10.9020   25.8580    1.8240 C.2   315  ASN315      0.2629
     66  OD1      -10.6120   26.9690    1.3640 O.2   315  ASN315     -0.2716
     67  ND2      -10.7800   25.5630    3.1230 N.am  315  ASN315     -0.0877
     68  N        -11.3800   19.2980    0.4230 N.3   317  MET317     -0.1230
     69  CA       -11.4530   18.1190    1.2710 C.3   317  MET317      0.1702
     70  C        -12.6030   18.2280    2.2670 C.2   317  MET317      0.2592
     71  O        -13.4410   17.3370    2.3510 O.2   317  MET317     -0.2718
     72  CB       -10.1410   17.9240    2.0200 C.3   317  MET317      0.0401
     73  CG       -10.1200   16.6530    2.8200 C.3   317  MET317      0.0596
     74  SD        -8.7140   16.5720    3.8890 S.3   317  MET317     -0.1393
     75  CE        -9.3240   17.4630    5.3330 C.3   317  MET317      0.0692
     76  N        -12.6320   19.3200    3.0220 N.am  318  VAL318     -0.1980
     77  CA       -13.6900   19.5490    4.0010 C.3   318  VAL318      0.1595
     78  C        -15.0430   19.4450    3.3090 C.2   318  VAL318      0.2287
     79  O        -15.9940   18.8770    3.8550 O.2   318  VAL318     -0.2864
     80  CB       -13.5710   20.9590    4.6520 C.3   318  VAL318      0.0276
     81  CG1      -14.7460   21.2020    5.5810 C.3   318  VAL318      0.0022
     82  CG2      -12.2480   21.0770    5.4180 C.3   318  VAL318      0.0022
     83  N        -18.3260   23.5320    3.5680 N.3   326  ASN326     -0.1240
     84  CA       -17.5570   23.6100    4.8090 C.3   326  ASN326      0.1653
     85  C        -18.4920   23.6270    6.0160 C.2   326  ASN326      0.2266
     86  O        -18.1730   23.0820    7.0730 O.2   326  ASN326     -0.2867
     87  CB       -16.6960   24.8830    4.8010 C.3   326  ASN326      0.1155
     88  CG       -15.8650   25.0500    6.0700 C.2   326  ASN326      0.2627
     89  OD1      -16.3940   25.0510    7.1830 O.2   326  ASN326     -0.2716
     90  ND2      -14.5550   25.2060    5.9020 N.am  326  ASN326     -0.0877
@<TRIPOS>BOND
     1    42    43    2
     2    42    41    1
     3    68    69    1
     4    48    47    1
     5    62    63    2
     6    62    61    1
     7    49    50    1
     8    64    61    1
     9    64    65    1
    10    40    41    1
    11    69    72    1
    12    69    70    1
    13    41    44    1
    14    66    65    2
    15    44    45    1
    16    61    60    1
    17    60    51   am
    18    12    11    2
    19    65    67   am
    20    45    46    1
    21    72    73    1
    22    47    46    1
    23    51    50    1
    24    51    52    2
    25    50    53    1
    26    70    71    2
    27    70    76   am
    28    11    10    1
    29    24    25    1
    30    73    74    1
    31    76    77    1
    32    53    54    1
    33    78    79    2
    34    78    77    1
    35    29    31    1
    36    29    28    1
    37    25    26    1
    38    25    28    1
    39    83    84    1
    40    74    75    1
    41    10     9    1
    42    10    13    1
    43    77    80    1
    44    17    18    1
    45    27    26    2
    46    26    32   am
    47    28    30    1
    48    14    13    1
    49    14    16    1
    50    58    57    1
    51    80    82    1
    52    80    81    1
    53    54    55    1
    54    13    15    1
    55    87    84    1
    56    87    88    1
    57    84    85    1
    58    59    57    1
    59    32    33    1
    60    57    56    2
    61    19    18    1
    62    19    20    2
    63    34    35    2
    64    34    33    1
    65    18    21    1
    66    56    55    1
    67    33    36    1
    68    90    88   am
    69    85    86    2
    70    88    89    2
    71     4     3    2
    72    21    23    1
    73    21    22    1
    74    36    37    1
    75     3     2    1
    76    37    38    1
    77     2     1    1
    78     2     5    1
    79    38    39    1
    80     5     6    1
    81     8     6    1
    82     6     7    1
