@<TRIPOS>MOLECULE
tmp/1gzmA10.pdb
 97 96 0 0 0
SMALL
GASTEIGER

@<TRIPOS>ATOM
      1  N         45.0240   33.9510   18.4130 N.3    39  MET39      -0.1230
      2  CA        45.0130   32.5070   18.2140 C.3    39  MET39       0.1702
      3  C         45.0210   32.2110   16.7060 C.2    39  MET39       0.2592
      4  O         45.7870   31.3640   16.2330 O.2    39  MET39      -0.2718
      5  CB        43.7690   31.8860   18.8630 C.3    39  MET39       0.0401
      6  CG        44.0670   30.7200   19.7930 C.3    39  MET39       0.0596
      7  SD        44.8440   31.2600   21.3450 S.3    39  MET39      -0.1393
      8  CE        46.5980   31.4370   20.8740 C.3    39  MET39       0.0692
      9  N         44.1740   32.9080   15.9510 N.am   40  LEU40      -0.1980
     10  CA        44.1360   32.6970   14.5130 C.3    40  LEU40       0.1596
     11  C         45.5230   32.9910   13.9350 C.2    40  LEU40       0.2287
     12  O         46.0820   32.1970   13.1690 O.2    40  LEU40      -0.2864
     13  CB        43.1010   33.6150   13.8650 C.3    40  LEU40       0.0297
     14  CG        41.6410   33.3890   14.2530 C.3    40  LEU40       0.0022
     15  CD1       40.7710   34.2700   13.3720 C.3    40  LEU40       0.0001
     16  CD2       41.2510   31.9310   14.0780 C.3    40  LEU40       0.0001
     17  N         47.9180   30.4350   14.7600 N.3    43  TYR43      -0.1241
     18  CA        47.5280   29.2910   13.9490 C.3    43  TYR43       0.1605
     19  C         48.0900   29.4150   12.5250 C.2    43  TYR43       0.2264
     20  O         48.7860   28.5210   12.0470 O.2    43  TYR43      -0.2867
     21  CB        45.9950   29.2170   13.9150 C.3    43  TYR43       0.0534
     22  CG        45.4150   28.0780   13.1220 C.ar   43  TYR43      -0.0201
     23  CD1       45.4870   26.7670   13.5860 C.ar   43  TYR43      -0.0009
     24  CD2       44.7850   28.3120   11.9020 C.ar   43  TYR43      -0.0009
     25  CE1       44.9390   25.7040   12.8440 C.ar   43  TYR43       0.0417
     26  CE2       44.2400   27.2660   11.1530 C.ar   43  TYR43       0.0417
     27  CZ        44.3220   25.9680   11.6270 C.ar   43  TYR43       0.1957
     28  OH        43.8090   24.9410   10.8710 O.3    43  TYR43      -0.2866
     29  N         33.2610   20.0950    6.7980 N.3   267  PRO267     -0.2116
     30  CA        32.7770   21.0640    7.7870 C.3   267  PRO267      0.1372
     31  C         32.5290   22.4300    7.1470 C.2   267  PRO267      0.2244
     32  O         31.5050   23.0600    7.4030 O.2   267  PRO267     -0.2868
     33  CB        33.9070   21.1130    8.8220 C.3   267  PRO267      0.0268
     34  CG        34.5350   19.7780    8.7040 C.3   267  PRO267      0.0207
     35  CD        34.5580   19.5340    7.2150 C.3   267  PRO267      0.0892
     36  N         28.7460   24.4050    6.5280 N.3   271  VAL271     -0.1245
     37  CA        28.3990   25.7400    7.0150 C.3   271  VAL271      0.1561
     38  C         28.1110   26.6620    5.8290 C.2   271  VAL271      0.2260
     39  O         27.1750   27.4640    5.8650 O.2   271  VAL271     -0.2867
     40  CB        29.5230   26.3310    7.9220 C.3   271  VAL271      0.0252
     41  CG1       29.2620   27.8290    8.2240 C.3   271  VAL271      0.0019
     42  CG2       29.5920   25.5410    9.2350 C.3   271  VAL271      0.0019
     43  N         30.7840   30.8630   13.8430 N.3   287  PHE287     -0.1241
     44  CA        30.1240   29.8120   13.0880 C.3   287  PHE287      0.1605
     45  C         30.9370   29.3600   11.8740 C.2   287  PHE287      0.2264
     46  O         31.0160   28.1690   11.5910 O.2   287  PHE287     -0.2867
     47  CB        28.7310   30.2840   12.6610 C.3   287  PHE287      0.0534
     48  CG        27.9150   29.2260   11.9980 C.ar  287  PHE287     -0.0203
     49  CD1       27.9130   27.9270   12.4850 C.ar  287  PHE287     -0.0042
     50  CD2       27.1250   29.5290   10.8860 C.ar  287  PHE287     -0.0042
     51  CE1       27.1320   26.9290   11.8720 C.ar  287  PHE287     -0.0003
     52  CE2       26.3390   28.5380   10.2660 C.ar  287  PHE287     -0.0003
     53  CZ        26.3470   27.2380   10.7640 C.ar  287  PHE287     -0.0000
     54  N         34.2750   30.6890   11.2480 N.3   289  THR289     -0.1203
     55  CA        35.6960   30.8070   11.5320 C.3   289  THR289      0.1994
     56  C         36.3700   29.4670   11.7640 C.2   289  THR289      0.2618
     57  O         37.4100   29.1790   11.1710 O.2   289  THR289     -0.2717
     58  CB        35.9570   31.7150   12.7620 C.3   289  THR289      0.1784
     59  OG1       35.4460   33.0310   12.5000 O.3   289  THR289     -0.2211
     60  CG2       37.4630   31.8150   13.0500 C.3   289  THR289      0.0376
     61  N         35.7840   28.6370   12.6150 N.am  290  ILE290     -0.1966
     62  CA        36.4040   27.3500   12.8970 C.3   290  ILE290      0.1712
     63  C         36.4960   26.4690   11.6520 C.2   290  ILE290      0.2458
     64  O         37.5680   25.9810   11.3090 O.2   290  ILE290     -0.2730
     65  CB        35.6620   26.5820   14.0370 C.3   290  ILE290      0.0289
     66  CG1       35.4770   27.4930   15.2560 C.3   290  ILE290      0.0022
     67  CG2       36.4770   25.3760   14.4670 C.3   290  ILE290      0.0023
     68  CD1       36.7700   28.0660   15.8180 C.3   290  ILE290      0.0001
     69  N         35.3790   26.2510   10.9550 N.am  291  PRO291     -0.2727
     70  CA        35.5070   25.4010    9.7670 C.3   291  PRO291      0.1402
     71  C         36.4760   25.9620    8.7080 C.2   291  PRO291      0.2269
     72  O         37.2700   25.2240    8.1370 O.2   291  PRO291     -0.2865
     73  CB        34.0670   25.3010    9.2630 C.3   291  PRO291      0.0296
     74  CG        33.2660   25.3940   10.5300 C.3   291  PRO291      0.0237
     75  CD        33.9640   26.5190   11.2590 C.3   291  PRO291      0.0939
     76  N         39.1920   28.1350    8.9530 N.3   293  PHE293     -0.1227
     77  CA        40.5880   27.9970    9.3340 C.3   293  PHE293      0.1736
     78  C         41.0020   26.5410    9.4550 C.2   293  PHE293      0.2595
     79  O         42.1570   26.1960    9.2250 O.2   293  PHE293     -0.2718
     80  CB        40.8580   28.7480   10.6380 C.3   293  PHE293      0.0547
     81  CG        40.9730   30.2170   10.4490 C.ar  293  PHE293     -0.0202
     82  CD1       39.8520   30.9740   10.1120 C.ar  293  PHE293     -0.0042
     83  CD2       42.2200   30.8380   10.4980 C.ar  293  PHE293     -0.0042
     84  CE1       39.9760   32.3230    9.8210 C.ar  293  PHE293     -0.0003
     85  CE2       42.3590   32.1970   10.2060 C.ar  293  PHE293     -0.0003
     86  CZ        41.2410   32.9390    9.8660 C.ar  293  PHE293     -0.0000
     87  N         40.0660   25.6780    9.8190 N.am  294  PHE294     -0.1976
     88  CA        40.3900   24.2630    9.9240 C.3   294  PHE294      0.1639
     89  C         40.7290   23.7390    8.5310 C.2   294  PHE294      0.2290
     90  O         41.7010   23.0090    8.3360 O.2   294  PHE294     -0.2864
     91  CB        39.2110   23.4710   10.4720 C.3   294  PHE294      0.0560
     92  CG        39.4470   21.9880   10.4880 C.ar  294  PHE294     -0.0200
     93  CD1       40.4730   21.4430   11.2670 C.ar  294  PHE294     -0.0042
     94  CD2       38.6660   21.1310    9.7030 C.ar  294  PHE294     -0.0042
     95  CE1       40.7220   20.0690   11.2650 C.ar  294  PHE294     -0.0003
     96  CE2       38.9030   19.7580    9.6910 C.ar  294  PHE294     -0.0003
     97  CZ        39.9350   19.2230   10.4740 C.ar  294  PHE294     -0.0000
@<TRIPOS>BOND
     1    38    39    2
     2    38    37    1
     3    36    37    1
     4    29    35    1
     5    29    30    1
     6    37    40    1
     7    31    32    2
     8    31    30    1
     9    35    34    1
    10    30    33    1
    11    40    41    1
    12    40    42    1
    13    72    71    2
    14    90    89    2
    15    89    88    1
    16    34    33    1
    17    71    70    1
    18    76    77    1
    19    79    78    2
    20    73    70    1
    21    73    74    1
    22    77    78    1
    23    77    80    1
    24    78    87   am
    25    96    94   ar
    26    96    97   ar
    27    94    92   ar
    28    70    69    1
    29    87    88    1
    30    84    86   ar
    31    84    82   ar
    32    86    85   ar
    33    88    91    1
    34    82    81   ar
    35    85    83   ar
    36    52    53   ar
    37    52    50   ar
    38    81    83   ar
    39    81    80    1
    40    91    92    1
    41    97    95   ar
    42    92    93   ar
    43    74    75    1
    44    53    51   ar
    45    28    27    1
    46    50    48   ar
    47    69    75    1
    48    69    63   am
    49    26    27   ar
    50    26    24   ar
    51    57    56    2
    52    54    55    1
    53    95    93   ar
    54    64    63    2
    55    55    56    1
    56    55    58    1
    57    46    45    2
    58    27    25   ar
    59    63    62    1
    60    56    61   am
    61    51    49   ar
    62    45    44    1
    63    24    22   ar
    64    48    49   ar
    65    48    47    1
    66    20    19    2
    67    59    58    1
    68    19    18    1
    69    61    62    1
    70    47    44    1
    71    58    60    1
    72    25    23   ar
    73    62    65    1
    74    44    43    1
    75    22    23   ar
    76    22    21    1
    77    12    11    2
    78    15    14    1
    79    13    14    1
    80    13    10    1
    81    21    18    1
    82    11    10    1
    83    18    17    1
    84    65    67    1
    85    65    66    1
    86    16    14    1
    87    10     9    1
    88    66    68    1
    89     9     3   am
    90     4     3    2
    91     3     2    1
    92     2     1    1
    93     2     5    1
    94     5     6    1
    95     6     7    1
    96     8     7    1
