@<TRIPOS>MOLECULE
tmp/1gzmB13.pdb
 90 89 0 0 0
SMALL
GASTEIGER

@<TRIPOS>ATOM
      1  N          6.8860   -3.9930   18.4060 N.3    39  MET39      -0.1230
      2  CA         6.8870   -2.5500   18.2100 C.3    39  MET39       0.1702
      3  C          6.8880   -2.2530   16.7040 C.2    39  MET39       0.2592
      4  O          6.1250   -1.4040   16.2290 O.2    39  MET39      -0.2718
      5  CB         8.1210   -1.9210   18.8640 C.3    39  MET39       0.0401
      6  CG         7.8240   -0.7430   19.7790 C.3    39  MET39       0.0596
      7  SD         7.1030   -1.2740   21.3620 S.3    39  MET39      -0.1393
      8  CE         5.3200   -1.4260   20.9660 C.3    39  MET39       0.0692
      9  N          7.7330   -2.9510   15.9470 N.am   40  LEU40      -0.1980
     10  CA         7.7690   -2.7120   14.5110 C.3    40  LEU40       0.1596
     11  C          6.3840   -3.0150   13.9350 C.2    40  LEU40       0.2287
     12  O          5.8200   -2.2240   13.1690 O.2    40  LEU40      -0.2864
     13  CB         8.8180   -3.5990   13.8370 C.3    40  LEU40       0.0297
     14  CG        10.2790   -3.4300   14.2540 C.3    40  LEU40       0.0022
     15  CD1       11.1430   -4.2930   13.3530 C.3    40  LEU40       0.0001
     16  CD2       10.7040   -1.9880   14.1470 C.3    40  LEU40       0.0001
     17  N          3.9850   -0.4720   14.7210 N.3    43  TYR43      -0.1241
     18  CA         4.3770    0.6740   13.9180 C.3    43  TYR43       0.1605
     19  C          3.8160    0.5630   12.4900 C.2    43  TYR43       0.2264
     20  O          3.1340    1.4770   12.0020 O.2    43  TYR43      -0.2867
     21  CB         5.9040    0.7450   13.8790 C.3    43  TYR43       0.0534
     22  CG         6.4730    1.8850   13.0780 C.ar   43  TYR43      -0.0201
     23  CD1        6.4780    3.1860   13.5830 C.ar   43  TYR43      -0.0009
     24  CD2        7.0360    1.6600   11.8210 C.ar   43  TYR43      -0.0009
     25  CE1        7.0450    4.2450   12.8540 C.ar   43  TYR43       0.0417
     26  CE2        7.6000    2.7050   11.0810 C.ar   43  TYR43       0.0417
     27  CZ         7.6050    3.9970   11.6020 C.ar   43  TYR43       0.1957
     28  OH         8.1770    5.0260   10.8800 O.3    43  TYR43      -0.2866
     29  N         18.6210    9.8710    6.7930 N.3   267  PRO267     -0.2116
     30  CA        19.1000    8.9080    7.7870 C.3   267  PRO267      0.1372
     31  C         19.3820    7.5620    7.1220 C.2   267  PRO267      0.2244
     32  O         20.4610    6.9840    7.3060 O.2   267  PRO267     -0.2868
     33  CB        17.9380    8.8180    8.7860 C.3   267  PRO267      0.0268
     34  CG        17.2690   10.1460    8.6730 C.3   267  PRO267      0.0207
     35  CD        17.3140   10.4340    7.1910 C.3   267  PRO267      0.0892
     36  N         23.1680    5.5400    6.5070 N.3   271  VAL271     -0.1245
     37  CA        23.5010    4.2120    7.0100 C.3   271  VAL271      0.1561
     38  C         23.8090    3.2860    5.8290 C.2   271  VAL271      0.2260
     39  O         24.7310    2.4720    5.8880 O.2   271  VAL271     -0.2867
     40  CB        22.3310    3.6190    7.8940 C.3   271  VAL271      0.0252
     41  CG1       22.5660    2.1400    8.1840 C.3   271  VAL271      0.0019
     42  CG2       22.2350    4.3880    9.2170 C.3   271  VAL271      0.0019
     43  N         21.1160   -0.8700   13.8620 N.3   287  PHE287     -0.1241
     44  CA        21.7730    0.1780   13.0920 C.3   287  PHE287      0.1605
     45  C         20.9490    0.6360   11.8850 C.2   287  PHE287      0.2264
     46  O         20.8330    1.8320   11.6280 O.2   287  PHE287     -0.2867
     47  CB        23.1500   -0.3120   12.6350 C.3   287  PHE287      0.0534
     48  CG        23.9810    0.7400   11.9670 C.ar  287  PHE287     -0.0203
     49  CD1       24.0390    2.0250   12.4820 C.ar  287  PHE287     -0.0042
     50  CD2       24.7690    0.4240   10.8590 C.ar  287  PHE287     -0.0042
     51  CE1       24.8770    2.9920   11.9090 C.ar  287  PHE287     -0.0003
     52  CE2       25.6110    1.3790   10.2770 C.ar  287  PHE287     -0.0003
     53  CZ        25.6630    2.6700   10.8100 C.ar  287  PHE287     -0.0000
     54  N         16.1120    1.3340   12.6090 N.3   290  ILE290     -0.1231
     55  CA        15.4990    2.6260   12.9000 C.3   290  ILE290      0.1678
     56  C         15.3880    3.5120   11.6640 C.2   290  ILE290      0.2434
     57  O         14.3080    3.9860   11.3420 O.2   290  ILE290     -0.2733
     58  CB        16.2450    3.3840   14.0270 C.3   290  ILE290      0.0265
     59  CG1       16.4250    2.4690   15.2400 C.3   290  ILE290      0.0019
     60  CG2       15.4270    4.5850   14.4730 C.3   290  ILE290      0.0020
     61  CD1       15.1080    1.9240   15.8070 C.3   290  ILE290      0.0001
     62  N         16.4980    3.7510   10.9490 N.am  291  PRO291     -0.2729
     63  CA        16.3640    4.6030    9.7600 C.3   291  PRO291      0.1401
     64  C         15.4040    4.0190    8.7040 C.2   291  PRO291      0.2269
     65  O         14.5960    4.7390    8.1200 O.2   291  PRO291     -0.2865
     66  CB        17.8020    4.7000    9.2440 C.3   291  PRO291      0.0296
     67  CG        18.6280    4.5350   10.4980 C.3   291  PRO291      0.0237
     68  CD        17.9120    3.4210   11.2090 C.3   291  PRO291      0.0939
     69  N         12.7380    1.8310    8.9640 N.3   293  PHE293     -0.1227
     70  CA        11.3300    1.9520    9.3230 C.3   293  PHE293      0.1736
     71  C         10.9110    3.3990    9.4390 C.2   293  PHE293      0.2595
     72  O          9.7520    3.7240    9.2090 O.2   293  PHE293     -0.2718
     73  CB        11.0310    1.2040   10.6300 C.3   293  PHE293      0.0547
     74  CG        10.9250   -0.2800   10.4540 C.ar  293  PHE293     -0.0202
     75  CD1       12.0430   -1.0330   10.0930 C.ar  293  PHE293     -0.0042
     76  CD2        9.6920   -0.9100   10.5360 C.ar  293  PHE293     -0.0042
     77  CE1       11.9280   -2.3820    9.8070 C.ar  293  PHE293     -0.0003
     78  CE2        9.5560   -2.2660   10.2520 C.ar  293  PHE293     -0.0003
     79  CZ        10.6700   -3.0020    9.8850 C.ar  293  PHE293     -0.0000
     80  N         11.8470    4.2750    9.7860 N.am  294  PHE294     -0.1976
     81  CA        11.5100    5.6780    9.9080 C.3   294  PHE294      0.1639
     82  C         11.1780    6.1970    8.5210 C.2   294  PHE294      0.2290
     83  O         10.1960    6.9110    8.3260 O.2   294  PHE294     -0.2864
     84  CB        12.6760    6.4750   10.4740 C.3   294  PHE294      0.0560
     85  CG        12.4340    7.9620   10.4920 C.ar  294  PHE294     -0.0200
     86  CD1       11.4110    8.5060   11.2690 C.ar  294  PHE294     -0.0042
     87  CD2       13.2230    8.8210    9.7280 C.ar  294  PHE294     -0.0042
     88  CE1       11.1770    9.8760   11.2880 C.ar  294  PHE294     -0.0003
     89  CE2       12.9990   10.1990    9.7380 C.ar  294  PHE294     -0.0003
     90  CZ        11.9730   10.7270   10.5210 C.ar  294  PHE294     -0.0000
@<TRIPOS>BOND
     1    38    39    2
     2    38    37    1
     3    36    37    1
     4    29    35    1
     5    29    30    1
     6    37    40    1
     7    31    32    2
     8    31    30    1
     9    35    34    1
    10    30    33    1
    11    40    41    1
    12    40    42    1
    13    65    64    2
    14    83    82    2
    15    82    81    1
    16    34    33    1
    17    64    63    1
    18    69    70    1
    19    72    71    2
    20    66    63    1
    21    66    67    1
    22    70    71    1
    23    70    73    1
    24    71    80   am
    25    87    89   ar
    26    87    85   ar
    27    89    90   ar
    28    63    62    1
    29    80    81    1
    30    77    79   ar
    31    77    75   ar
    32    79    78   ar
    33    81    84    1
    34    75    74   ar
    35    78    76   ar
    36    52    53   ar
    37    52    50   ar
    38    74    76   ar
    39    74    73    1
    40    84    85    1
    41    85    86   ar
    42    67    68    1
    43    90    88   ar
    44    53    51   ar
    45    50    48   ar
    46    28    27    1
    47    62    68    1
    48    62    56   am
    49    26    27   ar
    50    26    24   ar
    51    86    88   ar
    52    57    56    2
    53    27    25   ar
    54    46    45    2
    55    56    55    1
    56    24    22   ar
    57    45    44    1
    58    51    49   ar
    59    48    49   ar
    60    48    47    1
    61    20    19    2
    62    19    18    1
    63    54    55    1
    64    47    44    1
    65    25    23   ar
    66    55    58    1
    67    22    23   ar
    68    22    21    1
    69    44    43    1
    70    12    11    2
    71    15    14    1
    72    13    14    1
    73    13    10    1
    74    21    18    1
    75    18    17    1
    76    11    10    1
    77    58    60    1
    78    58    59    1
    79    16    14    1
    80    10     9    1
    81    59    61    1
    82     9     3   am
    83     4     3    2
    84     3     2    1
    85     2     1    1
    86     2     5    1
    87     5     6    1
    88     6     7    1
    89     8     7    1
