@<TRIPOS>MOLECULE
tmp/1gzmB03.pdb
 81 80 0 0 0
SMALL
GASTEIGER

@<TRIPOS>ATOM
      1  N         14.1810   15.0250    2.8620 N.3   262  LEU262     -0.1231
      2  CA        15.5470   14.9140    3.3600 C.3   262  LEU262      0.1693
      3  C         15.5580   14.4520    4.8190 C.2   262  LEU262      0.2591
      4  O         16.4300   13.6700    5.2310 O.2   262  LEU262     -0.2718
      5  CB        16.2720   16.2540    3.2040 C.3   262  LEU262      0.0284
      6  CG        16.5120   16.6030    1.7300 C.3   262  LEU262      0.0019
      7  CD1       17.1120   17.9870    1.6190 C.3   262  LEU262      0.0001
      8  CD2       17.4260   15.5740    1.0990 C.3   262  LEU262      0.0001
      9  N         14.5840   14.9300    5.5910 N.am  263  ILE263     -0.1980
     10  CA        14.4500   14.5450    6.9890 C.3   263  ILE263      0.1595
     11  C         14.1110   13.0590    7.0590 C.2   263  ILE263      0.2287
     12  O         14.6460   12.3150    7.8950 O.2   263  ILE263     -0.2864
     13  CB        13.3170   15.3400    7.6760 C.3   263  ILE263      0.0276
     14  CG1       13.8270   16.7270    8.0730 C.3   263  ILE263      0.0022
     15  CG2       12.7800   14.5750    8.8840 C.3   263  ILE263      0.0022
     16  CD1       12.7460   17.6280    8.5860 C.3   263  ILE263      0.0001
     17  N         17.4150   10.9620    4.4120 N.3   266  LEU266     -0.1231
     18  CA        18.8450   11.1160    4.6590 C.3   266  LEU266      0.1678
     19  C         19.3730   10.1020    5.6970 C.2   266  LEU266      0.2434
     20  O         20.4490    9.5200    5.5130 O.2   266  LEU266     -0.2733
     21  CB        19.1350   12.5480    5.1110 C.3   266  LEU266      0.0284
     22  CG        19.8610   13.4670    4.1230 C.3   266  LEU266      0.0019
     23  CD1       19.4860   13.1170    2.6900 C.3   266  LEU266      0.0001
     24  CD2       19.5190   14.9130    4.4390 C.3   266  LEU266      0.0001
     25  N         18.6210    9.8710    6.7930 N.am  267  PRO267     -0.2729
     26  CA        19.1000    8.9080    7.7870 C.3   267  PRO267      0.1401
     27  C         19.3820    7.5620    7.1220 C.2   267  PRO267      0.2269
     28  O         20.4610    6.9840    7.3060 O.2   267  PRO267     -0.2865
     29  CB        17.9380    8.8180    8.7860 C.3   267  PRO267      0.0296
     30  CG        17.2690   10.1460    8.6730 C.3   267  PRO267      0.0237
     31  CD        17.3140   10.4340    7.1910 C.3   267  PRO267      0.0939
     32  N         19.7280    6.9340    3.9000 N.3   269  ALA269     -0.1231
     33  CA        20.7790    7.1550    2.9320 C.3   269  ALA269      0.1694
     34  C         22.1400    6.9600    3.5850 C.2   269  ALA269      0.2593
     35  O         22.9320    6.1380    3.1400 O.2   269  ALA269     -0.2718
     36  CB        20.6610    8.5560    2.3720 C.3   269  ALA269      0.0304
     37  N         22.4000    7.7130    4.6530 N.am  270  GLY270     -0.1942
     38  CA        23.6760    7.6130    5.3340 C.3   270  GLY270      0.2014
     39  C         24.0740    6.2380    5.8400 C.2   270  GLY270      0.2638
     40  O         25.2040    5.8110    5.6500 O.2   270  GLY270     -0.2714
     41  N         23.1680    5.5400    6.5070 N.am  271  VAL271     -0.1977
     42  CA        23.5010    4.2120    7.0100 C.3   271  VAL271      0.1596
     43  C         23.8090    3.2860    5.8290 C.2   271  VAL271      0.2287
     44  O         24.7310    2.4720    5.8880 O.2   271  VAL271     -0.2864
     45  CB        22.3310    3.6190    7.8940 C.3   271  VAL271      0.0276
     46  CG1       22.5660    2.1400    8.1840 C.3   271  VAL271      0.0022
     47  CG2       22.2350    4.3880    9.2170 C.3   271  VAL271      0.0022
     48  N         24.9840    4.1220    2.8380 N.3   273  PHE273     -0.1227
     49  CA        26.2780    4.5180    2.2900 C.3   273  PHE273      0.1736
     50  C         27.4120    4.0220    3.1890 C.2   273  PHE273      0.2595
     51  O         28.4830    3.6120    2.7200 O.2   273  PHE273     -0.2718
     52  CB        26.3640    6.0410    2.1640 C.3   273  PHE273      0.0547
     53  CG        27.6020    6.5120    1.4470 C.ar  273  PHE273     -0.0202
     54  CD1       27.6660    6.4860    0.0520 C.ar  273  PHE273     -0.0042
     55  CD2       28.7200    6.9440    2.1630 C.ar  273  PHE273     -0.0042
     56  CE1       28.8260    6.8830   -0.6250 C.ar  273  PHE273     -0.0003
     57  CE2       29.8830    7.3410    1.5070 C.ar  273  PHE273     -0.0003
     58  CZ        29.9400    7.3110    0.1090 C.ar  273  PHE273     -0.0000
     59  N         27.1720    4.0730    4.4880 N.am  274  TYR274     -0.1976
     60  CA        28.1620    3.6300    5.4430 C.3   274  TYR274      0.1639
     61  C         28.3580    2.1400    5.2640 C.2   274  TYR274      0.2290
     62  O         29.4510    1.6840    4.9270 O.2   274  TYR274     -0.2864
     63  CB        27.6910    3.9160    6.8580 C.3   274  TYR274      0.0560
     64  CG        28.6880    3.4850    7.8850 C.ar  274  TYR274     -0.0198
     65  CD1       29.7690    4.2920    8.2070 C.ar  274  TYR274     -0.0009
     66  CD2       28.5840    2.2400    8.4980 C.ar  274  TYR274     -0.0009
     67  CE1       30.7290    3.8690    9.1190 C.ar  274  TYR274      0.0417
     68  CE2       29.5320    1.8060    9.4030 C.ar  274  TYR274      0.0417
     69  CZ        30.6040    2.6230    9.7130 C.ar  274  TYR274      0.1957
     70  OH        31.5440    2.1960   10.6220 O.3   274  TYR274     -0.2866
     71  N         21.1160   -0.8700   13.8620 N.3   287  PHE287     -0.1241
     72  CA        21.7730    0.1780   13.0920 C.3   287  PHE287      0.1605
     73  C         20.9490    0.6360   11.8850 C.2   287  PHE287      0.2264
     74  O         20.8330    1.8320   11.6280 O.2   287  PHE287     -0.2867
     75  CB        23.1500   -0.3120   12.6350 C.3   287  PHE287      0.0534
     76  CG        23.9810    0.7400   11.9670 C.ar  287  PHE287     -0.0203
     77  CD1       24.0390    2.0250   12.4820 C.ar  287  PHE287     -0.0042
     78  CD2       24.7690    0.4240   10.8590 C.ar  287  PHE287     -0.0042
     79  CE1       24.8770    2.9920   11.9090 C.ar  287  PHE287     -0.0003
     80  CE2       25.6110    1.3790   10.2770 C.ar  287  PHE287     -0.0003
     81  CZ        25.6630    2.6700   10.8100 C.ar  287  PHE287     -0.0000
@<TRIPOS>BOND
     1    56    54   ar
     2    56    58   ar
     3    54    53   ar
     4    58    57   ar
     5     8     6    1
     6    53    55   ar
     7    53    52    1
     8    57    55   ar
     9     7     6    1
    10     6     5    1
    11    52    49    1
    12    49    48    1
    13    49    50    1
    14    36    33    1
    15    23    22    1
    16    51    50    2
    17     1     2    1
    18    33    34    1
    19    33    32    1
    20    35    34    2
    21    50    59   am
    22     5     2    1
    23     2     3    1
    24    34    37   am
    25    22    24    1
    26    22    21    1
    27    17    18    1
    28    59    60    1
    29    37    38    1
    30    18    21    1
    31    18    19    1
    32     3     4    2
    33     3     9   am
    34    62    61    2
    35    61    60    1
    36    38    39    1
    37    60    63    1
    38    20    19    2
    39     9    10    1
    40    40    39    2
    41    19    25   am
    42    43    44    2
    43    43    42    1
    44    39    41   am
    45    41    42    1
    46    25    31    1
    47    25    26    1
    48    63    64    1
    49    10    11    1
    50    10    13    1
    51    42    45    1
    52    11    12    2
    53    27    28    2
    54    27    26    1
    55    31    30    1
    56    13    14    1
    57    13    15    1
    58    26    29    1
    59    64    65   ar
    60    64    66   ar
    61    45    46    1
    62    45    47    1
    63    14    16    1
    64    65    67   ar
    65    66    68   ar
    66    30    29    1
    67    67    69   ar
    68    68    69   ar
    69    69    70    1
    70    80    81   ar
    71    80    78   ar
    72    81    79   ar
    73    78    76   ar
    74    74    73    2
    75    73    72    1
    76    79    77   ar
    77    76    77   ar
    78    76    75    1
    79    75    72    1
    80    72    71    1
