@<TRIPOS>MOLECULE
tmp/1gzmB12.pdb
 109 109 0 0 0
SMALL
GASTEIGER

@<TRIPOS>ATOM
      1  N         22.7850    5.8030   -5.9320 N.3   208  PHE208     -0.1227
      2  CA        23.1390    7.0330   -5.2260 C.3   208  PHE208      0.1736
      3  C         23.3900    8.2020   -6.1530 C.2   208  PHE208      0.2595
      4  O         23.1010    9.3520   -5.8100 O.2   208  PHE208     -0.2718
      5  CB        24.3830    6.8280   -4.3480 C.3   208  PHE208      0.0547
      6  CG        24.0750    6.3200   -2.9620 C.ar  208  PHE208     -0.0202
      7  CD1       23.2680    7.0610   -2.0980 C.ar  208  PHE208     -0.0042
      8  CD2       24.5690    5.0940   -2.5300 C.ar  208  PHE208     -0.0042
      9  CE1       22.9520    6.5820   -0.8230 C.ar  208  PHE208     -0.0003
     10  CE2       24.2610    4.6080   -1.2600 C.ar  208  PHE208     -0.0003
     11  CZ        23.4500    5.3510   -0.4040 C.ar  208  PHE208     -0.0000
     12  N         23.9170    7.9150   -7.3340 N.am  209  VAL209     -0.1980
     13  CA        24.2380    8.9670   -8.2760 C.3   209  VAL209      0.1595
     14  C         23.0630    9.4420   -9.1030 C.2   209  VAL209      0.2287
     15  O         22.7710   10.6410   -9.1700 O.2   209  VAL209     -0.2864
     16  CB        25.3600    8.5130   -9.2120 C.3   209  VAL209      0.0276
     17  CG1       25.6100    9.5660  -10.2990 C.3   209  VAL209      0.0022
     18  CG2       26.6120    8.2740   -8.3950 C.3   209  VAL209      0.0022
     19  N         19.5640    9.7880   -6.4480 N.3   212  PHE212     -0.1227
     20  CA        19.6860   10.5500   -5.2170 C.3   212  PHE212      0.1736
     21  C         20.3490   11.8710   -5.5530 C.2   212  PHE212      0.2595
     22  O         19.7000   12.9190   -5.5510 O.2   212  PHE212     -0.2718
     23  CB        20.5120    9.8110   -4.1680 C.3   212  PHE212      0.0547
     24  CG        20.5680   10.5220   -2.8460 C.ar  212  PHE212     -0.0202
     25  CD1       19.4060   10.7760   -2.1350 C.ar  212  PHE212     -0.0042
     26  CD2       21.7790   10.9650   -2.3250 C.ar  212  PHE212     -0.0042
     27  CE1       19.4440   11.4610   -0.9270 C.ar  212  PHE212     -0.0003
     28  CE2       21.8260   11.6550   -1.1140 C.ar  212  PHE212     -0.0003
     29  CZ        20.6570   11.9020   -0.4160 C.ar  212  PHE212     -0.0000
     30  N         21.6370   11.8070   -5.8800 N.am  213  ILE213     -0.1980
     31  CA        22.4150   13.0010   -6.2140 C.3   213  ILE213      0.1595
     32  C         21.8750   13.8330   -7.3780 C.2   213  ILE213      0.2287
     33  O         21.5730   15.0140   -7.2020 O.2   213  ILE213     -0.2864
     34  CB        23.8960   12.6460   -6.5220 C.3   213  ILE213      0.0276
     35  CG1       24.5390   11.9860   -5.3040 C.3   213  ILE213      0.0022
     36  CG2       24.6720   13.9050   -6.8920 C.3   213  ILE213      0.0022
     37  CD1       24.4470   12.8270   -4.0520 C.3   213  ILE213      0.0001
     38  N         17.4150   10.9620    4.4120 N.3   266  LEU266     -0.1231
     39  CA        18.8450   11.1160    4.6590 C.3   266  LEU266      0.1678
     40  C         19.3730   10.1020    5.6970 C.2   266  LEU266      0.2434
     41  O         20.4490    9.5200    5.5130 O.2   266  LEU266     -0.2733
     42  CB        19.1350   12.5480    5.1110 C.3   266  LEU266      0.0284
     43  CG        19.8610   13.4670    4.1230 C.3   266  LEU266      0.0019
     44  CD1       19.4860   13.1170    2.6900 C.3   266  LEU266      0.0001
     45  CD2       19.5190   14.9130    4.4390 C.3   266  LEU266      0.0001
     46  N         18.6210    9.8710    6.7930 N.am  267  PRO267     -0.2729
     47  CA        19.1000    8.9080    7.7870 C.3   267  PRO267      0.1401
     48  C         19.3820    7.5620    7.1220 C.2   267  PRO267      0.2269
     49  O         20.4610    6.9840    7.3060 O.2   267  PRO267     -0.2865
     50  CB        17.9380    8.8180    8.7860 C.3   267  PRO267      0.0296
     51  CG        17.2690   10.1460    8.6730 C.3   267  PRO267      0.0237
     52  CD        17.3140   10.4340    7.1910 C.3   267  PRO267      0.0939
     53  N         19.7280    6.9340    3.9000 N.3   269  ALA269     -0.1231
     54  CA        20.7790    7.1550    2.9320 C.3   269  ALA269      0.1694
     55  C         22.1400    6.9600    3.5850 C.2   269  ALA269      0.2593
     56  O         22.9320    6.1380    3.1400 O.2   269  ALA269     -0.2718
     57  CB        20.6610    8.5560    2.3720 C.3   269  ALA269      0.0304
     58  N         22.4000    7.7130    4.6530 N.am  270  GLY270     -0.1942
     59  CA        23.6760    7.6130    5.3340 C.3   270  GLY270      0.2014
     60  C         24.0740    6.2380    5.8400 C.2   270  GLY270      0.2638
     61  O         25.2040    5.8110    5.6500 O.2   270  GLY270     -0.2714
     62  N         23.1680    5.5400    6.5070 N.am  271  VAL271     -0.1977
     63  CA        23.5010    4.2120    7.0100 C.3   271  VAL271      0.1596
     64  C         23.8090    3.2860    5.8290 C.2   271  VAL271      0.2287
     65  O         24.7310    2.4720    5.8880 O.2   271  VAL271     -0.2864
     66  CB        22.3310    3.6190    7.8940 C.3   271  VAL271      0.0276
     67  CG1       22.5660    2.1400    8.1840 C.3   271  VAL271      0.0022
     68  CG2       22.2350    4.3880    9.2170 C.3   271  VAL271      0.0022
     69  N         24.9840    4.1220    2.8380 N.3   273  PHE273     -0.1227
     70  CA        26.2780    4.5180    2.2900 C.3   273  PHE273      0.1736
     71  C         27.4120    4.0220    3.1890 C.2   273  PHE273      0.2595
     72  O         28.4830    3.6120    2.7200 O.2   273  PHE273     -0.2718
     73  CB        26.3640    6.0410    2.1640 C.3   273  PHE273      0.0547
     74  CG        27.6020    6.5120    1.4470 C.ar  273  PHE273     -0.0202
     75  CD1       27.6660    6.4860    0.0520 C.ar  273  PHE273     -0.0042
     76  CD2       28.7200    6.9440    2.1630 C.ar  273  PHE273     -0.0042
     77  CE1       28.8260    6.8830   -0.6250 C.ar  273  PHE273     -0.0003
     78  CE2       29.8830    7.3410    1.5070 C.ar  273  PHE273     -0.0003
     79  CZ        29.9400    7.3110    0.1090 C.ar  273  PHE273     -0.0000
     80  N         27.1720    4.0730    4.4880 N.am  274  TYR274     -0.1976
     81  CA        28.1620    3.6300    5.4430 C.3   274  TYR274      0.1639
     82  C         28.3580    2.1400    5.2640 C.2   274  TYR274      0.2290
     83  O         29.4510    1.6840    4.9270 O.2   274  TYR274     -0.2864
     84  CB        27.6910    3.9160    6.8580 C.3   274  TYR274      0.0560
     85  CG        28.6880    3.4850    7.8850 C.ar  274  TYR274     -0.0198
     86  CD1       29.7690    4.2920    8.2070 C.ar  274  TYR274     -0.0009
     87  CD2       28.5840    2.2400    8.4980 C.ar  274  TYR274     -0.0009
     88  CE1       30.7290    3.8690    9.1190 C.ar  274  TYR274      0.0417
     89  CE2       29.5320    1.8060    9.4030 C.ar  274  TYR274      0.0417
     90  CZ        30.6040    2.6230    9.7130 C.ar  274  TYR274      0.1957
     91  OH        31.5440    2.1960   10.6220 O.3   274  TYR274     -0.2866
     92  N         21.1160   -0.8700   13.8620 N.3   287  PHE287     -0.1241
     93  CA        21.7730    0.1780   13.0920 C.3   287  PHE287      0.1605
     94  C         20.9490    0.6360   11.8850 C.2   287  PHE287      0.2264
     95  O         20.8330    1.8320   11.6280 O.2   287  PHE287     -0.2867
     96  CB        23.1500   -0.3120   12.6350 C.3   287  PHE287      0.0534
     97  CG        23.9810    0.7400   11.9670 C.ar  287  PHE287     -0.0203
     98  CD1       24.0390    2.0250   12.4820 C.ar  287  PHE287     -0.0042
     99  CD2       24.7690    0.4240   10.8590 C.ar  287  PHE287     -0.0042
    100  CE1       24.8770    2.9920   11.9090 C.ar  287  PHE287     -0.0003
    101  CE2       25.6110    1.3790   10.2770 C.ar  287  PHE287     -0.0003
    102  CZ        25.6630    2.6700   10.8100 C.ar  287  PHE287     -0.0000
    103  N         16.4980    3.7510   10.9490 N.3   291  PRO291     -0.2116
    104  CA        16.3640    4.6030    9.7600 C.3   291  PRO291      0.1372
    105  C         15.4040    4.0190    8.7040 C.2   291  PRO291      0.2244
    106  O         14.5960    4.7390    8.1200 O.2   291  PRO291     -0.2868
    107  CB        17.8020    4.7000    9.2440 C.3   291  PRO291      0.0268
    108  CG        18.6280    4.5350   10.4980 C.3   291  PRO291      0.0207
    109  CD        17.9120    3.4210   11.2090 C.3   291  PRO291      0.0892
@<TRIPOS>BOND
     1    17    16    1
     2    16    18    1
     3    16    13    1
     4    15    14    2
     5    14    13    1
     6    13    12    1
     7    32    33    2
     8    32    31    1
     9    12     3   am
    10    36    34    1
    11    34    31    1
    12    34    35    1
    13    19    20    1
    14    31    30    1
    15     3     4    2
    16     3     2    1
    17     1     2    1
    18    30    21   am
    19    21    22    2
    20    21    20    1
    21    35    37    1
    22     2     5    1
    23    20    23    1
    24     5     6    1
    25    23    24    1
    26     6     8   ar
    27     6     7   ar
    28    24    26   ar
    29    24    25   ar
    30     8    10   ar
    31    26    28   ar
    32    25    27   ar
    33     7     9   ar
    34    10    11   ar
    35    28    29   ar
    36    27    29   ar
    37     9    11   ar
    38    77    75   ar
    39    77    79   ar
    40    75    74   ar
    41    79    78   ar
    42    74    76   ar
    43    74    73    1
    44    78    76   ar
    45    73    70    1
    46    70    69    1
    47    70    71    1
    48    57    54    1
    49    44    43    1
    50    72    71    2
    51    54    55    1
    52    54    53    1
    53    56    55    2
    54    71    80   am
    55    55    58   am
    56    43    45    1
    57    43    42    1
    58    38    39    1
    59    80    81    1
    60    58    59    1
    61    39    42    1
    62    39    40    1
    63    83    82    2
    64    82    81    1
    65    59    60    1
    66    81    84    1
    67    41    40    2
    68    61    60    2
    69    40    46   am
    70    64    65    2
    71    64    63    1
    72    60    62   am
    73    62    63    1
    74    46    52    1
    75    46    47    1
    76    84    85    1
    77    63    66    1
    78    48    49    2
    79    48    47    1
    80    52    51    1
    81    47    50    1
    82    85    86   ar
    83    85    87   ar
    84    66    67    1
    85    66    68    1
    86   106   105    2
    87    86    88   ar
    88    87    89   ar
    89    51    50    1
    90   105   104    1
    91    88    90   ar
    92   107   104    1
    93   107   108    1
    94    89    90   ar
    95    90    91    1
    96   104   103    1
    97   101   102   ar
    98   101    99   ar
    99   108   109    1
   100   102   100   ar
   101    99    97   ar
   102   103   109    1
   103    95    94    2
   104    94    93    1
   105   100    98   ar
   106    97    98   ar
   107    97    96    1
   108    96    93    1
   109    93    92    1
