@<TRIPOS>MOLECULE
tmp/1gzmB00.pdb
 90 90 0 0 0
SMALL
GASTEIGER

@<TRIPOS>ATOM
      1  N         11.9120  -14.9990   -0.2430 N.3   107  PRO107     -0.2102
      2  CA        12.4230  -13.9180   -1.0850 C.3   107  PRO107      0.1504
      3  C         11.3390  -13.1460   -1.8410 C.2   107  PRO107      0.2576
      4  O         11.4670  -11.9490   -2.0990 O.2   107  PRO107     -0.2718
      5  CB        13.3790  -14.6490   -2.0180 C.3   107  PRO107      0.0282
      6  CG        13.9320  -15.7100   -1.1290 C.3   107  PRO107      0.0208
      7  CD        12.6840  -16.2320   -0.4620 C.3   107  PRO107      0.0893
      8  N         10.2650  -13.8230   -2.2010 N.am  108  THR108     -0.1953
      9  CA         9.2210  -13.1310   -2.9240 C.3   108  THR108      0.1897
     10  C          8.6210  -12.0400   -2.0360 C.2   108  THR108      0.2313
     11  O          8.2830  -10.9550   -2.5130 O.2   108  THR108     -0.2863
     12  CB         8.1560  -14.1360   -3.4510 C.3   108  THR108      0.1794
     13  OG1        6.8600  -13.5270   -3.4370 O.3   108  THR108     -0.2208
     14  CG2        8.1750  -15.4250   -2.6300 C.3   108  THR108      0.0378
     15  N         10.9760   -9.1830   -1.8750 N.3   111  ASN111     -0.1225
     16  CA        10.9750   -8.3730   -3.0800 C.3   111  ASN111      0.1785
     17  C          9.8570   -7.3520   -3.0240 C.2   111  ASN111      0.2597
     18  O         10.0540   -6.1870   -3.3680 O.2   111  ASN111     -0.2718
     19  CB        10.8380   -9.2350   -4.3280 C.3   111  ASN111      0.1169
     20  CG        12.1690   -9.7840   -4.7960 C.2   111  ASN111      0.2627
     21  OD1       13.2320   -9.2140   -4.4990 O.2   111  ASN111     -0.2716
     22  ND2       12.1250  -10.8830   -5.5480 N.am  111  ASN111     -0.0877
     23  N          8.6830   -7.7860   -2.5860 N.am  112  LEU112     -0.1980
     24  CA         7.5480   -6.8860   -2.4570 C.3   112  LEU112      0.1596
     25  C          7.8680   -5.7010   -1.5180 C.2   112  LEU112      0.2287
     26  O          7.6450   -4.5240   -1.8490 O.2   112  LEU112     -0.2864
     27  CB         6.3590   -7.6700   -1.9030 C.3   112  LEU112      0.0297
     28  CG         5.7000   -8.6520   -2.8690 C.3   112  LEU112      0.0022
     29  CD1        4.8790   -9.6410   -2.0950 C.3   112  LEU112      0.0001
     30  CD2        4.8220   -7.8870   -3.8660 C.3   112  LEU112      0.0001
     31  N         10.7500   -3.6230   -3.1930 N.3   115  PHE115     -0.1227
     32  CA        10.3200   -2.9490   -4.3980 C.3   115  PHE115      0.1736
     33  C          9.4850   -1.6930   -4.1210 C.2   115  PHE115      0.2595
     34  O          9.9130   -0.5850   -4.4300 O.2   115  PHE115     -0.2718
     35  CB         9.5200   -3.9060   -5.2770 C.3   115  PHE115      0.0547
     36  CG         9.1040   -3.3100   -6.5970 C.ar  115  PHE115     -0.0202
     37  CD1       10.0570   -3.0340   -7.5750 C.ar  115  PHE115     -0.0042
     38  CD2        7.7600   -3.0190   -6.8530 C.ar  115  PHE115     -0.0042
     39  CE1        9.6880   -2.4750   -8.7950 C.ar  115  PHE115     -0.0003
     40  CE2        7.3750   -2.4650   -8.0600 C.ar  115  PHE115     -0.0003
     41  CZ         8.3460   -2.1890   -9.0420 C.ar  115  PHE115     -0.0000
     42  N          8.3070   -1.8730   -3.5290 N.am  116  PHE116     -0.1976
     43  CA         7.3950   -0.7660   -3.2450 C.3   116  PHE116      0.1639
     44  C          7.9420    0.3270   -2.3440 C.2   116  PHE116      0.2290
     45  O          7.5420    1.4870   -2.4380 O.2   116  PHE116     -0.2864
     46  CB         6.0920   -1.3350   -2.6890 C.3   116  PHE116      0.0560
     47  CG         5.3340   -2.1400   -3.6980 C.ar  116  PHE116     -0.0200
     48  CD1        4.6990   -1.5090   -4.7760 C.ar  116  PHE116     -0.0042
     49  CD2        5.2830   -3.5290   -3.6070 C.ar  116  PHE116     -0.0042
     50  CE1        4.0220   -2.2490   -5.7460 C.ar  116  PHE116     -0.0003
     51  CE2        4.6040   -4.2850   -4.5790 C.ar  116  PHE116     -0.0003
     52  CZ         3.9730   -3.6380   -5.6480 C.ar  116  PHE116     -0.0000
     53  N         16.8040   -4.5430   -9.7250 N.3   171  PRO171     -0.2102
     54  CA        17.1420   -5.5490   -8.7090 C.3   171  PRO171      0.1504
     55  C         16.1540   -6.7290   -8.6700 C.2   171  PRO171      0.2575
     56  O         16.3670   -7.7080   -7.9510 O.2   171  PRO171     -0.2718
     57  CB        17.1770   -4.7410   -7.4130 C.3   171  PRO171      0.0282
     58  CG        16.2420   -3.5990   -7.6950 C.3   171  PRO171      0.0208
     59  CD        16.5710   -3.2240   -9.1090 C.3   171  PRO171      0.0893
     60  N         15.0760   -6.6390   -9.4420 N.am  172  LEU172     -0.1980
     61  CA        14.1050   -7.7350   -9.5020 C.3   172  LEU172      0.1596
     62  C         14.5250   -8.7370  -10.5590 C.2   172  LEU172      0.2287
     63  O         14.1650   -9.9010  -10.4870 O.2   172  LEU172     -0.2864
     64  CB        12.7030   -7.2390   -9.8740 C.3   172  LEU172      0.0297
     65  CG        11.8960   -6.4640   -8.8440 C.3   172  LEU172      0.0022
     66  CD1       10.5530   -6.0900   -9.4410 C.3   172  LEU172      0.0001
     67  CD2       11.7170   -7.3150   -7.5870 C.3   172  LEU172      0.0001
     68  N         19.9170   -6.7280   -5.7910 N.3   177  ARG177     -0.1231
     69  CA        18.7760   -7.5030   -5.3000 C.3   177  ARG177      0.1694
     70  C         18.2270   -6.9630   -3.9750 C.2   177  ARG177      0.2592
     71  O         18.9370   -6.3040   -3.2120 O.2   177  ARG177     -0.2718
     72  CB        19.2330   -8.9330   -5.0740 C.3   177  ARG177      0.0321
     73  CG        20.3970   -8.9680   -4.0950 C.3   177  ARG177      0.0489
     74  CD        21.0060  -10.3240   -4.0090 C.3   177  ARG177      0.2205
     75  NE        22.1150  -10.3630   -3.0690 N.pl3 177  ARG177     -0.0865
     76  CZ        22.6990  -11.4880   -2.6790 C.cat 177  ARG177      0.5346
     77  NH1       22.2640  -12.6420   -3.1610 N.pl3 177  ARG177      0.1354
     78  NH2       23.7030  -11.4630   -1.8130 N.pl3 177  ARG177      0.1354
     79  N         16.9620   -7.2490   -3.6990 N.am  178  TYR178     -0.1976
     80  CA        16.3690   -6.8270   -2.4390 C.3   178  TYR178      0.1639
     81  C         16.7900   -7.8430   -1.3800 C.2   178  TYR178      0.2290
     82  O         16.7520   -9.0590   -1.6080 O.2   178  TYR178     -0.2864
     83  CB        14.8560   -6.7250   -2.5880 C.3   178  TYR178      0.0560
     84  CG        14.4980   -5.5200   -3.4180 C.ar  178  TYR178     -0.0198
     85  CD1       14.8130   -4.2370   -2.9750 C.ar  178  TYR178     -0.0009
     86  CD2       13.9180   -5.6550   -4.6690 C.ar  178  TYR178     -0.0009
     87  CE1       14.5660   -3.1220   -3.7540 C.ar  178  TYR178      0.0417
     88  CE2       13.6660   -4.5380   -5.4620 C.ar  178  TYR178      0.0417
     89  CZ        13.9920   -3.2730   -4.9960 C.ar  178  TYR178      0.1957
     90  OH        13.7290   -2.1520   -5.7600 O.3   178  TYR178     -0.2866
@<TRIPOS>BOND
     1    62    63    2
     2    62    61    1
     3    64    61    1
     4    64    65    1
     5    53    59    1
     6    53    54    1
     7    61    60    1
     8    60    55   am
     9    66    65    1
    10    59    58    1
    11    41    39   ar
    12    41    40   ar
    13    65    67    1
    14    39    37   ar
    15    54    55    1
    16    54    57    1
    17    55    56    2
    18    40    38   ar
    19    58    57    1
    20    37    36   ar
    21    38    36   ar
    22    36    35    1
    23    68    69    1
    24    90    89    1
    25    50    52   ar
    26    50    48   ar
    27    52    51   ar
    28    22    20   am
    29    88    89   ar
    30    88    86   ar
    31    69    72    1
    32    69    70    1
    33    35    32    1
    34    72    73    1
    35    89    87   ar
    36    20    21    2
    37    20    19    1
    38    48    47   ar
    39    86    84   ar
    40    51    49   ar
    41    34    33    2
    42    32    33    1
    43    32    31    1
    44    19    16    1
    45    33    42   am
    46    73    74    1
    47    74    75    1
    48    70    79   am
    49    70    71    2
    50    30    28    1
    51    87    85   ar
    52    79    80    1
    53    47    49   ar
    54    47    46    1
    55    42    43    1
    56    12    13    1
    57    12     9    1
    58    12    14    1
    59    84    85   ar
    60    84    83    1
    61    18    17    2
    62    43    46    1
    63    43    44    1
    64    77    76    1
    65    16    17    1
    66    16    15    1
    67    75    76    2
    68    17    23   am
    69     9     8    1
    70     9    10    1
    71    28    29    1
    72    28    27    1
    73    76    78    1
    74    83    80    1
    75    23    24    1
    76    11    10    2
    77    24    27    1
    78    24    25    1
    79    80    81    1
    80    45    44    2
    81     8     3   am
    82     4     3    2
    83     5     6    1
    84     5     2    1
    85    26    25    2
    86     3     2    1
    87    82    81    2
    88     6     7    1
    89     2     1    1
    90     7     1    1
