@<TRIPOS>MOLECULE
tmp/1gzpA01.pdb
 112 107 0 0 0
SMALL
GASTEIGER

@<TRIPOS>ATOM
      1  N         64.1130    5.0520    2.4630 N.3    77  GLU77      -0.1231
      2  CA        64.9720    5.1750    3.6320 C.3    77  GLU77       0.1699
      3  C         64.2620    5.3120    4.9630 C.2    77  GLU77       0.2592
      4  O         64.8370    4.9960    6.0070 O.2    77  GLU77      -0.2718
      5  CB        66.0110    6.2750    3.4380 C.3    77  GLU77       0.0402
      6  CG        66.8430    6.1640    2.1470 C.3    77  GLU77       0.1161
      7  CD        67.7730    4.9500    2.0420 C.2    77  GLU77       0.3649
      8  OE1       68.3630    4.7910    0.9520 O.co2  77  GLU77      -0.2457
      9  OE2       67.9380    4.1690    3.0110 O.co2  77  GLU77      -0.2457
     10  N         63.0080    5.7530    4.9270 N.am   78  VAL78      -0.1980
     11  CA        62.2120    5.8820    6.1440 C.3    78  VAL78       0.1595
     12  C         61.7360    4.4740    6.5240 C.2    78  VAL78       0.2287
     13  O         61.7480    4.1180    7.7010 O.2    78  VAL78      -0.2864
     14  CB        61.0380    6.9070    5.9760 C.3    78  VAL78       0.0276
     15  CG1       60.0670    6.8520    7.1440 C.3    78  VAL78       0.0022
     16  CG2       61.5900    8.3140    5.9060 C.3    78  VAL78       0.0022
     17  N         64.9690    2.7480    8.0220 N.3    81  PHE81      -0.1241
     18  CA        65.3850    3.1990    9.3450 C.3    81  PHE81       0.1605
     19  C         64.2510    3.5100   10.3380 C.2    81  PHE81       0.2264
     20  O         64.4190    4.3130   11.2580 O.2    81  PHE81      -0.2867
     21  CB        66.3650    4.3840    9.2090 C.3    81  PHE81       0.0534
     22  CG        67.7330    4.0090    8.6590 C.ar   81  PHE81      -0.0203
     23  CD1       68.4060    4.8850    7.7840 C.ar   81  PHE81      -0.0042
     24  CD2       68.3690    2.7920    9.0290 C.ar   81  PHE81      -0.0042
     25  CE1       69.7020    4.5700    7.2740 C.ar   81  PHE81      -0.0003
     26  CE2       69.6670    2.4500    8.5320 C.ar   81  PHE81      -0.0003
     27  CZ        70.3350    3.3450    7.6510 C.ar   81  PHE81      -0.0000
     28  N         64.7550    4.2550   14.5110 N.3    85  PHE85      -0.1241
     29  CA        64.2020    5.4860   15.0750 C.3    85  PHE85       0.1605
     30  C         63.0350    5.2630   16.0420 C.2    85  PHE85       0.2264
     31  O         62.4600    6.2320   16.5590 O.2    85  PHE85      -0.2867
     32  CB        63.7690    6.4280   13.9510 C.3    85  PHE85       0.0534
     33  CG        64.8600    7.3380   13.4530 C.ar   85  PHE85      -0.0203
     34  CD1       64.7830    8.7250   13.6850 C.ar   85  PHE85      -0.0042
     35  CD2       65.9510    6.8290   12.7190 C.ar   85  PHE85      -0.0042
     36  CE1       65.7800    9.6120   13.1880 C.ar   85  PHE85      -0.0003
     37  CE2       66.9600    7.6980   12.2110 C.ar   85  PHE85      -0.0003
     38  CZ        66.8710    9.0970   12.4480 C.ar   85  PHE85      -0.0000
     39  N         59.9900    4.0080   15.4720 N.3    87  MET87      -0.1245
     40  CA        58.7140    4.4410   14.9020 C.3    87  MET87       0.1570
     41  C         57.6110    3.3870   14.9410 C.2    87  MET87       0.2261
     42  O         57.8280    2.2340   14.5570 O.2    87  MET87      -0.2867
     43  CB        58.9120    4.9140   13.4670 C.3    87  MET87       0.0387
     44  CG        58.5250    6.3570   13.2600 C.3    87  MET87       0.0595
     45  SD        59.7840    7.4970   13.8200 S.3    87  MET87      -0.1393
     46  CE        60.4270    7.9990   12.2680 C.3    87  MET87       0.0692
     47  N         54.1660   11.6900    7.6970 N.3    93  ILE93      -0.1245
     48  CA        55.1540   12.7510    7.6390 C.3    93  ILE93       0.1561
     49  C         54.5800   13.8170    6.7130 C.2    93  ILE93       0.2260
     50  O         53.8780   13.5030    5.7520 O.2    93  ILE93      -0.2867
     51  CB        56.5290   12.2510    7.1360 C.3    93  ILE93       0.0252
     52  CG1       57.0730   11.1770    8.0920 C.3    93  ILE93       0.0019
     53  CG2       57.5110   13.4180    7.0500 C.3    93  ILE93       0.0019
     54  CD1       58.4240   10.5920    7.7240 C.3    93  ILE93       0.0001
     55  N         58.9020   18.7490   13.3200 N.3   120  PHE120     -0.1241
     56  CA        60.0410   17.8420   13.4200 C.3   120  PHE120      0.1605
     57  C         61.3290   18.6160   13.1460 C.2   120  PHE120      0.2264
     58  O         62.2040   18.7090   14.0180 O.2   120  PHE120     -0.2867
     59  CB        59.8710   16.6950   12.4240 C.3   120  PHE120      0.0534
     60  CG        60.8170   15.5400   12.6240 C.ar  120  PHE120     -0.0203
     61  CD1       61.9140   15.3640   11.7640 C.ar  120  PHE120     -0.0042
     62  CD2       60.5600   14.5640   13.6010 C.ar  120  PHE120     -0.0042
     63  CE1       62.7460   14.2190   11.8620 C.ar  120  PHE120     -0.0003
     64  CE2       61.3830   13.4100   13.7140 C.ar  120  PHE120     -0.0003
     65  CZ        62.4780   13.2370   12.8380 C.ar  120  PHE120     -0.0000
     66  N         68.2040   12.8640   13.4910 N.3   141  PHE141     -0.1241
     67  CA        67.9640   12.9750   12.0530 C.3   141  PHE141      0.1605
     68  C         68.8230   14.0530   11.4060 C.2   141  PHE141      0.2264
     69  O         69.4100   13.8120   10.3530 O.2   141  PHE141     -0.2867
     70  CB        66.4830   13.2500   11.7700 C.3   141  PHE141      0.0534
     71  CG        66.1130   13.1930   10.3040 C.ar  141  PHE141     -0.0203
     72  CD1       65.9710   14.3760    9.5480 C.ar  141  PHE141     -0.0042
     73  CD2       65.8990   11.9580    9.6680 C.ar  141  PHE141     -0.0042
     74  CE1       65.6200   14.3310    8.1740 C.ar  141  PHE141     -0.0003
     75  CE2       65.5430   11.8990    8.2860 C.ar  141  PHE141     -0.0003
     76  CZ        65.4040   13.0890    7.5430 C.ar  141  PHE141     -0.0000
     77  N         72.3750   13.1370   11.1280 N.3   144  LEU144     -0.1231
     78  CA        72.5900   12.1130   10.1140 C.3   144  LEU144      0.1693
     79  C         72.5060   12.7160    8.7080 C.2   144  LEU144      0.2591
     80  O         73.3540   12.4320    7.8550 O.2   144  LEU144     -0.2718
     81  CB        71.5550   10.9870   10.2770 C.3   144  LEU144      0.0284
     82  CG        71.4290    9.8330    9.2630 C.3   144  LEU144      0.0019
     83  CD1       72.7050    8.9930    9.1980 C.3   144  LEU144      0.0001
     84  CD2       70.2390    8.9580    9.6360 C.3   144  LEU144      0.0001
     85  N         71.5220   13.5930    8.5010 N.am  145  ILE145     -0.1980
     86  CA        71.2710   14.2250    7.2050 C.3   145  ILE145      0.1595
     87  C         72.3770   15.1310    6.6450 C.2   145  ILE145      0.2287
     88  O         72.5080   15.2610    5.4280 O.2   145  ILE145     -0.2864
     89  CB        69.8540   14.9170    7.1920 C.3   145  ILE145      0.0276
     90  CG1       69.1300   14.6300    5.8770 C.3   145  ILE145      0.0022
     91  CG2       69.9290   16.4250    7.4720 C.3   145  ILE145      0.0022
     92  CD1       68.7330   13.1770    5.6930 C.3   145  ILE145      0.0001
     93  N         75.2820   13.5040    4.2530 N.3   148  TYR148     -0.1241
     94  CA        74.9810   13.2480    2.8430 C.3   148  TYR148      0.1605
     95  C         75.0230   14.5920    2.0990 C.2   148  TYR148      0.2264
     96  O         74.0030   15.2730    1.9600 O.2   148  TYR148     -0.2867
     97  CB        73.6000   12.5810    2.7050 C.3   148  TYR148      0.0534
     98  CG        73.4880   11.1940    3.3170 C.ar  148  TYR148     -0.0201
     99  CD1       73.7640   10.0410    2.5500 C.ar  148  TYR148     -0.0009
    100  CD2       73.1140   11.0220    4.6700 C.ar  148  TYR148     -0.0009
    101  CE1       73.6740    8.7380    3.1160 C.ar  148  TYR148      0.0417
    102  CE2       73.0180    9.7230    5.2500 C.ar  148  TYR148      0.0417
    103  CZ        73.3010    8.5920    4.4630 C.ar  148  TYR148      0.1957
    104  OH        73.2110    7.3300    5.0050 O.3   148  TYR148     -0.2866
    105  N         72.7050   15.4130   -1.2960 N.3   151  ILE151     -0.1245
    106  CA        71.2950   15.7760   -1.1530 C.3   151  ILE151      0.1561
    107  C         71.1410   17.1370   -0.4870 C.2   151  ILE151      0.2260
    108  O         70.1700   17.8430   -0.7390 O.2   151  ILE151     -0.2867
    109  CB        70.4380   14.6890   -0.4170 C.3   151  ILE151      0.0252
    110  CG1       70.6640   14.7090    1.0920 C.3   151  ILE151      0.0019
    111  CG2       70.7550   13.3000   -0.9690 C.3   151  ILE151      0.0019
    112  CD1       69.6010   13.9790    1.8740 C.3   151  ILE151      0.0001
@<TRIPOS>BOND
     1   105   106    1
     2   106   107    1
     3   106   109    1
     4   111   109    1
     5   108   107    2
     6   109   110    1
     7     8     7   ar
     8   110   112    1
     9    96    95    2
    10     7     6    1
    11     7     9   ar
    12    95    94    1
    13     6     5    1
    14     1     2    1
    15    99   101   ar
    16    99    98   ar
    17    97    94    1
    18    97    98    1
    19    94    93    1
    20   101   103   ar
    21    98   100   ar
    22     5     2    1
    23     2     3    1
    24   103   104    1
    25   103   102   ar
    26   100   102   ar
    27    10     3   am
    28    10    11    1
    29     3     4    2
    30    88    87    2
    31    92    90    1
    32    50    49    2
    33    90    89    1
    34    16    14    1
    35    14    11    1
    36    14    15    1
    37    11    12    1
    38    12    13    2
    39    87    86    1
    40    49    48    1
    41    53    51    1
    42    51    48    1
    43    51    52    1
    44    89    86    1
    45    89    91    1
    46    86    85    1
    47    25    27   ar
    48    25    23   ar
    49    76    74   ar
    50    76    75   ar
    51    48    47    1
    52    27    26   ar
    53    54    52    1
    54    23    22   ar
    55    80    79    2
    56    17    18    1
    57    74    72   ar
    58    75    73   ar
    59    85    79   am
    60    26    24   ar
    61    22    24   ar
    62    22    21    1
    63    79    78    1
    64    83    82    1
    65    21    18    1
    66    82    84    1
    67    82    81    1
    68    18    19    1
    69    72    71   ar
    70    73    71   ar
    71    78    81    1
    72    78    77    1
    73    71    70    1
    74    19    20    2
    75    69    68    2
    76    68    67    1
    77    61    63   ar
    78    61    60   ar
    79    70    67    1
    80    63    65   ar
    81    67    66    1
    82    37    38   ar
    83    37    35   ar
    84    46    45    1
    85    59    60    1
    86    59    56    1
    87    38    36   ar
    88    60    62   ar
    89    35    33   ar
    90    65    64   ar
    91    57    56    1
    92    57    58    2
    93    36    34   ar
    94    44    43    1
    95    44    45    1
    96    55    56    1
    97    33    34   ar
    98    33    32    1
    99    43    40    1
   100    62    64   ar
   101    32    29    1
   102    28    29    1
   103    42    41    2
   104    40    41    1
   105    40    39    1
   106    29    30    1
   107    30    31    2
