@<TRIPOS>MOLECULE
tmp/1gzqA01.pdb
 131 124 0 0 0
SMALL
GASTEIGER

@<TRIPOS>ATOM
      1  N        107.6910    5.1830    2.4180 N.3    78  GLU78      -0.1231
      2  CA       108.5280    5.4110    3.5900 C.3    78  GLU78       0.1699
      3  C        107.7320    5.4550    4.8780 C.2    78  GLU78       0.2592
      4  O        108.2340    5.0620    5.9310 O.2    78  GLU78      -0.2718
      5  CB       109.3360    6.6940    3.4290 C.3    78  GLU78       0.0402
      6  CG       110.2260    6.6490    2.2130 C.3    78  GLU78       0.1161
      7  CD       111.0640    5.3870    2.1720 C.2    78  GLU78       0.3649
      8  OE1      111.2850    4.8540    1.0650 O.co2  78  GLU78      -0.2457
      9  OE2      111.5050    4.9330    3.2490 O.co2  78  GLU78      -0.2457
     10  N        106.4970    5.9420    4.8130 N.am   79  VAL79      -0.1980
     11  CA       105.6760    5.9650    6.0120 C.3    79  VAL79       0.1595
     12  C        105.4320    4.5150    6.4280 C.2    79  VAL79       0.2287
     13  O        105.6360    4.1660    7.5820 O.2    79  VAL79      -0.2864
     14  CB       104.3180    6.6620    5.7800 C.3    79  VAL79       0.0276
     15  CG1      103.3930    6.4160    6.9650 C.3    79  VAL79       0.0022
     16  CG2      104.5320    8.1440    5.5980 C.3    79  VAL79       0.0022
     17  N        108.7700    2.9850    7.9550 N.3    82  PHE82      -0.1241
     18  CA       109.1160    3.4420    9.3010 C.3    82  PHE82       0.1605
     19  C        107.9530    3.4280   10.2930 C.2    82  PHE82       0.2264
     20  O        108.1300    3.8070   11.4490 O.2    82  PHE82      -0.2867
     21  CB       109.6870    4.8670    9.2590 C.3    82  PHE82       0.0534
     22  CG       110.9840    4.9930    8.5140 C.ar   82  PHE82      -0.0203
     23  CD1      111.0330    4.8370    7.1330 C.ar   82  PHE82      -0.0042
     24  CD2      112.1620    5.2990    9.1950 C.ar   82  PHE82      -0.0042
     25  CE1      112.2360    4.9880    6.4360 C.ar   82  PHE82      -0.0003
     26  CE2      113.3750    5.4530    8.5050 C.ar   82  PHE82      -0.0003
     27  CZ       113.4090    5.2980    7.1260 C.ar   82  PHE82      -0.0000
     28  N        108.5490    4.1840   14.1580 N.3    86  PHE86      -0.1241
     29  CA       107.9830    5.3990   14.7380 C.3    86  PHE86       0.1605
     30  C        106.7860    5.1080   15.6390 C.2    86  PHE86       0.2264
     31  O        106.0730    6.0270   16.0410 O.2    86  PHE86      -0.2867
     32  CB       107.5560    6.3690   13.6320 C.3    86  PHE86       0.0534
     33  CG       108.6470    7.2980   13.1710 C.ar   86  PHE86      -0.0203
     34  CD1      108.6560    8.6300   13.5740 C.ar   86  PHE86      -0.0042
     35  CD2      109.6570    6.8490   12.3220 C.ar   86  PHE86      -0.0042
     36  CE1      109.6550    9.5040   13.1390 C.ar   86  PHE86      -0.0003
     37  CE2      110.6640    7.7150   11.8790 C.ar   86  PHE86      -0.0003
     38  CZ       110.6610    9.0450   12.2890 C.ar   86  PHE86      -0.0000
     39  N        103.6080    3.6330   15.2530 N.3    88  MET88      -0.1245
     40  CA       102.3900    4.2020   14.6820 C.3    88  MET88       0.1570
     41  C        101.2310    3.2130   14.6950 C.2    88  MET88       0.2261
     42  O        101.3640    2.0900   14.2100 O.2    88  MET88      -0.2867
     43  CB       102.6520    4.6260   13.2350 C.3    88  MET88       0.0387
     44  CG       102.1450    6.0090   12.8790 C.3    88  MET88       0.0595
     45  SD       103.3000    7.2770   13.4040 S.3    88  MET88      -0.1393
     46  CE       104.6070    6.9920   12.2300 C.3    88  MET88       0.0692
     47  N         97.9170   11.6950    7.6270 N.3    94  ILE94      -0.1245
     48  CA        98.9590   12.6950    7.6220 C.3    94  ILE94       0.1561
     49  C         98.4930   13.7780    6.6690 C.2    94  ILE94       0.2260
     50  O         98.0300   13.4740    5.5740 O.2    94  ILE94      -0.2867
     51  CB       100.2960   12.1240    7.1130 C.3    94  ILE94       0.0252
     52  CG1      100.8350   11.1070    8.1180 C.3    94  ILE94       0.0019
     53  CG2      101.2950   13.2630    6.8890 C.3    94  ILE94       0.0019
     54  CD1      102.1880   10.5140    7.7210 C.3    94  ILE94       0.0001
     55  N         99.8580   15.2560   11.9030 N.3   116  LEU116     -0.1245
     56  CA        99.6490   13.8390   12.1430 C.3   116  LEU116      0.1561
     57  C         98.4680   13.7970   13.1050 C.2   116  LEU116      0.2260
     58  O         98.4350   14.5420   14.0890 O.2   116  LEU116     -0.2867
     59  CB       100.9040   13.2100   12.7750 C.3   116  LEU116      0.0270
     60  CG       100.9400   11.7060   13.0770 C.3   116  LEU116      0.0019
     61  CD1       99.9290   11.3690   14.1570 C.3   116  LEU116      0.0001
     62  CD2      100.6400   10.9100   11.8220 C.3   116  LEU116      0.0001
     63  N        102.5800   18.8760   13.4710 N.3   121  PHE121     -0.1241
     64  CA       103.6300   17.8900   13.5940 C.3   121  PHE121      0.1605
     65  C        104.9430   18.5670   13.2580 C.2   121  PHE121      0.2264
     66  O        105.9400   18.3650   13.9470 O.2   121  PHE121     -0.2867
     67  CB       103.3750   16.7130   12.6560 C.3   121  PHE121      0.0534
     68  CG       104.4140   15.6220   12.7500 C.ar  121  PHE121     -0.0203
     69  CD1      105.5290   15.6280   11.9220 C.ar  121  PHE121     -0.0042
     70  CD2      104.2590   14.5690   13.6500 C.ar  121  PHE121     -0.0042
     71  CE1      106.4790   14.5970   11.9800 C.ar  121  PHE121     -0.0003
     72  CE2      105.2040   13.5330   13.7160 C.ar  121  PHE121     -0.0003
     73  CZ       106.3130   13.5490   12.8780 C.ar  121  PHE121     -0.0000
     74  N        108.2230   11.9750   18.1770 N.3   138  ARG138     -0.1197
     75  CA       108.0650   11.6310   16.7700 C.3   138  ARG138      0.1779
     76  C        108.5550   12.7660   15.8780 C.2   138  ARG138      0.2305
     77  O        109.4170   12.5640   15.0260 O.2   138  ARG138     -0.2863
     78  CB       106.5970   11.3520   16.4400 C.2   138  ARG138     -0.0007
     79  CG       106.0280   10.0780   17.0160 C.2   138  ARG138      0.0176
     80  CD       104.5850    9.7800   16.6460 C.3   138  ARG138      0.2464
     81  NE       104.0840    8.5730   17.2920 N.pl3 138  ARG138     -0.0815
     82  CZ       102.8350    8.1280   17.1770 C.cat 138  ARG138      0.5349
     83  NH1      101.9520    8.7890   16.4380 N.pl3 138  ARG138      0.1354
     84  NH2      102.4650    7.0230   17.8080 N.pl3 138  ARG138      0.1354
     85  N        111.6230   12.6300   13.3370 N.3   142  PHE142     -0.1241
     86  CA       111.4040   12.7550   11.8970 C.3   142  PHE142      0.1605
     87  C        112.2350   13.8850   11.3100 C.2   142  PHE142      0.2264
     88  O        112.9360   13.6900   10.3230 O.2   142  PHE142     -0.2867
     89  CB       109.9220   12.9930   11.5800 C.3   142  PHE142      0.0534
     90  CG       109.6500   13.2190   10.1170 C.ar  142  PHE142     -0.0203
     91  CD1      109.8900   14.4610    9.5300 C.ar  142  PHE142     -0.0042
     92  CD2      109.2080   12.1760    9.3110 C.ar  142  PHE142     -0.0042
     93  CE1      109.6970   14.6590    8.1630 C.ar  142  PHE142     -0.0003
     94  CE2      109.0120   12.3640    7.9440 C.ar  142  PHE142     -0.0003
     95  CZ       109.2580   13.6090    7.3700 C.ar  142  PHE142     -0.0000
     96  N        115.7570   13.1700   11.3260 N.3   145  LEU145     -0.1231
     97  CA       116.0110   12.1670   10.3040 C.3   145  LEU145      0.1693
     98  C        115.9980   12.7440    8.8840 C.2   145  LEU145      0.2591
     99  O        116.9950   12.6710    8.1600 O.2   145  LEU145     -0.2718
    100  CB       114.9550   11.0620   10.4040 C.3   145  LEU145      0.0284
    101  CG       115.2240    9.6760    9.7990 C.3   145  LEU145      0.0019
    102  CD1      113.9310    8.8800    9.8230 C.3   145  LEU145      0.0001
    103  CD2      115.7410    9.7770    8.3760 C.3   145  LEU145      0.0001
    104  N        114.8620   13.3200    8.4960 N.am  146  ILE146     -0.1980
    105  CA       114.6720   13.8580    7.1500 C.3   146  ILE146      0.1595
    106  C        115.7360   14.8170    6.6270 C.2   146  ILE146      0.2287
    107  O        116.0710   14.7840    5.4410 O.2   146  ILE146     -0.2864
    108  CB       113.2920   14.5420    7.0200 C.3   146  ILE146      0.0276
    109  CG1      112.8590   14.5470    5.5560 C.3   146  ILE146      0.0022
    110  CG2      113.3590   15.9670    7.5380 C.3   146  ILE146      0.0022
    111  CD1      112.6770   13.1620    4.9870 C.3   146  ILE146      0.0001
    112  N        118.6700   13.7710    4.3190 N.3   149  TYR149     -0.1241
    113  CA       118.4880   13.4510    2.9060 C.3   149  TYR149      0.1605
    114  C        118.7260   14.6700    2.0190 C.2   149  TYR149      0.2264
    115  O        117.8420   15.5070    1.8300 O.2   149  TYR149     -0.2867
    116  CB       117.0860   12.8710    2.6840 C.3   149  TYR149      0.0534
    117  CG       116.9210   11.4680    3.2440 C.ar  149  TYR149     -0.0201
    118  CD1      117.2190   10.3490    2.4700 C.ar  149  TYR149     -0.0009
    119  CD2      116.5060   11.2610    4.5610 C.ar  149  TYR149     -0.0009
    120  CE1      117.1110    9.0650    2.9880 C.ar  149  TYR149      0.0417
    121  CE2      116.3950    9.9790    5.0890 C.ar  149  TYR149      0.0417
    122  CZ       116.6990    8.8840    4.2980 C.ar  149  TYR149      0.1957
    123  OH       116.5930    7.6060    4.8080 O.3   149  TYR149     -0.2866
    124  N        115.9560   15.1880   -1.1070 N.3   152  ILE152     -0.1245
    125  CA       114.6240   15.6980   -0.8040 C.3   152  ILE152      0.1561
    126  C        114.6530   17.1130   -0.2450 C.2   152  ILE152      0.2260
    127  O        113.7600   17.9100   -0.5220 O.2   152  ILE152     -0.2867
    128  CB       113.8510   14.7570    0.1710 C.3   152  ILE152      0.0252
    129  CG1      114.1360   15.1290    1.6220 C.3   152  ILE152      0.0019
    130  CG2      114.2370   13.3020   -0.0840 C.3   152  ILE152      0.0019
    131  CD1      113.1850   16.1670    2.1840 C.3   152  ILE152      0.0001
@<TRIPOS>BOND
     1   124   125    1
     2   125   126    1
     3   125   128    1
     4   127   126    2
     5   130   128    1
     6   128   129    1
     7     8     7   ar
     8   129   131    1
     9   115   114    2
    10   114   113    1
    11     7     6    1
    12     7     9   ar
    13     6     5    1
    14     1     2    1
    15   118   120   ar
    16   118   117   ar
    17   116   113    1
    18   116   117    1
    19   113   112    1
    20   120   122   ar
    21   117   119   ar
    22     5     2    1
    23     2     3    1
    24   122   123    1
    25   122   121   ar
    26   119   121   ar
    27    10     3   am
    28    10    11    1
    29     3     4    2
    30   111   109    1
    31   107   106    2
    32   109   108    1
    33    50    49    2
    34    16    14    1
    35    14    11    1
    36    14    15    1
    37    11    12    1
    38    12    13    2
    39    25    27   ar
    40    25    23   ar
    41   106   105    1
    42    49    48    1
    43    53    51    1
    44   108   105    1
    45   108   110    1
    46    51    48    1
    47    51    52    1
    48    27    26   ar
    49    23    22   ar
    50   105   104    1
    51    95    94   ar
    52    95    93   ar
    53    48    47    1
    54    54    52    1
    55    94    92   ar
    56    17    18    1
    57    99    98    2
    58    93    91   ar
    59   103   101    1
    60   104    98   am
    61    26    24   ar
    62    22    24   ar
    63    22    21    1
    64    98    97    1
    65    21    18    1
    66    18    19    1
    67    92    90   ar
    68    91    90   ar
    69   101   102    1
    70   101   100    1
    71    90    89    1
    72    19    20    2
    73    97   100    1
    74    97    96    1
    75    88    87    2
    76    87    86    1
    77    89    86    1
    78    62    60    1
    79    37    38   ar
    80    37    35   ar
    81    86    85    1
    82    55    56    1
    83    69    71   ar
    84    69    68   ar
    85    71    73   ar
    86    56    59    1
    87    56    57    1
    88    46    45    1
    89    38    36   ar
    90    35    33   ar
    91    67    68    1
    92    67    64    1
    93    68    70   ar
    94    59    60    1
    95    73    72   ar
    96    44    43    1
    97    44    45    1
    98    60    61    1
    99    57    58    2
   100    36    34   ar
   101    33    34   ar
   102    33    32    1
   103    43    40    1
   104    65    64    1
   105    65    66    2
   106    63    64    1
   107    32    29    1
   108    70    72   ar
   109    28    29    1
   110    42    41    2
   111    40    41    1
   112    40    39    1
   113    29    30    1
   114    77    76    2
   115    30    31    2
   116    76    75    1
   117    83    82    1
   118    78    75    1
   119    78    79    2
   120    80    79    1
   121    80    81    1
   122    75    74    1
   123    82    81    2
   124    82    84    1
