@<TRIPOS>MOLECULE
tmp/1gzuB00.pdb
 166 160 0 0 0
SMALL
GASTEIGER

@<TRIPOS>ATOM
      1  N         26.9480   75.9110   41.6660 N.3     9  CYS9       -0.1221
      2  CA        26.4880   75.2240   42.8550 C.3     9  CYS9        0.1808
      3  C         25.2270   74.5240   42.4540 C.2     9  CYS9        0.2602
      4  O         24.4530   75.0750   41.6910 O.2     9  CYS9       -0.2717
      5  CB        26.1930   76.2100   43.9780 C.3     9  CYS9        0.0970
      6  SG        27.6210   77.1730   44.4520 S.3     9  CYS9       -0.0800
      7  N         24.9990   73.3260   42.9810 N.am   10  GLY10      -0.1942
      8  CA        23.8090   72.5630   42.6670 C.3    10  GLY10       0.2014
      9  C         23.8180   71.2120   43.3510 C.2    10  GLY10       0.2639
     10  O         24.8460   70.6790   43.6710 O.2    10  GLY10      -0.2714
     11  N         22.6540   70.6560   43.5920 N.am   11  SER11      -0.1949
     12  CA        22.5810   69.3540   44.2220 C.3    11  SER11       0.1924
     13  C         23.3840   68.3490   43.4820 C.2    11  SER11       0.2314
     14  O         23.9280   67.4490   44.0770 O.2    11  SER11      -0.2863
     15  CB        21.1540   68.8520   44.2690 C.3    11  SER11       0.2116
     16  OG        20.5610   69.1730   45.5040 O.3    11  SER11      -0.2180
     17  N         26.2690   70.2160   46.6010 N.3    44  VAL44      -0.1245
     18  CA        25.7100   70.6850   47.8750 C.3    44  VAL44       0.1561
     19  C         26.0510   69.7480   48.9670 C.2    44  VAL44       0.2260
     20  O         26.1750   68.5570   48.7480 O.2    44  VAL44      -0.2867
     21  CB        24.1820   70.6090   47.8920 C.3    44  VAL44       0.0252
     22  CG1       23.5940   71.8040   48.6140 C.3    44  VAL44       0.0019
     23  CG2       23.6450   70.4740   46.5030 C.3    44  VAL44       0.0019
     24  N         21.7510   70.4680   53.2760 N.3    48  TYR48      -0.1241
     25  CA        20.7130   71.1370   52.5060 C.3    48  TYR48       0.1605
     26  C         19.3820   70.4760   52.7540 C.2    48  TYR48       0.2264
     27  O         18.3350   71.1220   52.7360 O.2    48  TYR48      -0.2867
     28  CB        21.0210   71.0300   51.0470 C.3    48  TYR48       0.0534
     29  CG        20.2250   71.9390   50.1690 C.ar   48  TYR48      -0.0201
     30  CD1       20.1950   73.2930   50.3930 C.ar   48  TYR48      -0.0009
     31  CD2       19.5560   71.4430   49.0710 C.ar   48  TYR48      -0.0009
     32  CE1       19.4980   74.1370   49.5510 C.ar   48  TYR48       0.0417
     33  CE2       18.8560   72.2630   48.2320 C.ar   48  TYR48       0.0417
     34  CZ        18.8270   73.6120   48.4670 C.ar   48  TYR48       0.1957
     35  OH        18.1320   74.4340   47.6120 O.3    48  TYR48      -0.2866
     36  N         17.4340   68.2860   51.0340 N.3    50  LYS50      -0.1245
     37  CA        16.4170   68.2630   49.9900 C.3    50  LYS50       0.1561
     38  C         15.9480   66.8250   49.7820 C.2    50  LYS50       0.2260
     39  O         16.6570   65.8870   50.0750 O.2    50  LYS50      -0.2867
     40  CB        16.9750   68.8600   48.6970 C.3    50  LYS50       0.0271
     41  CG        16.1250   68.6550   47.4590 C.3    50  LYS50       0.0035
     42  CD        16.8670   69.1390   46.2230 C.3    50  LYS50       0.0206
     43  CE        15.9690   69.1760   45.0020 C.3    50  LYS50       0.1093
     44  NZ        16.7040   69.6650   43.7990 N.3    50  LYS50      -0.1314
     45  N         32.2750   72.8880   50.0210 N.3    78  GLU78      -0.1245
     46  CA        30.9250   73.0630   50.4820 C.3    78  GLU78       0.1567
     47  C         30.3430   71.7700   51.0290 C.2    78  GLU78       0.2260
     48  O         29.6730   71.7740   52.0510 O.2    78  GLU78      -0.2867
     49  CB        30.0910   73.6110   49.3430 C.3    78  GLU78       0.0388
     50  CG        28.6520   73.8470   49.6870 C.3    78  GLU78       0.1160
     51  CD        27.9410   74.6320   48.6160 C.2    78  GLU78       0.3649
     52  OE1       28.5200   74.8060   47.5110 O.co2  78  GLU78      -0.2457
     53  OE2       26.8070   75.0860   48.8970 O.co2  78  GLU78      -0.2457
     54  N         24.5570   73.9280   56.1770 N.3    84  TRP84      -0.1227
     55  CA        24.3390   74.2570   54.7730 C.3    84  TRP84       0.1737
     56  C         24.8790   75.6360   54.5370 C.2    84  TRP84       0.2595
     57  O         24.8330   76.4800   55.4160 O.2    84  TRP84      -0.2718
     58  CB        22.8660   74.2150   54.3650 C.3    84  TRP84       0.0564
     59  CG        22.6450   74.9620   53.0760 C.ar   84  TRP84       0.0003
     60  CD1       22.9600   74.5380   51.8180 C.ar   84  TRP84       0.0946
     61  CD2       22.1250   76.2820   52.9260 C.ar   84  TRP84       0.0152
     62  NE1       22.6320   75.4990   50.8960 N.ar   84  TRP84      -0.2442
     63  CE2       22.1270   76.5840   51.5540 C.ar   84  TRP84       0.0810
     64  CE3       21.6490   77.2420   53.8140 C.ar   84  TRP84       0.0012
     65  CZ2       21.6770   77.7920   51.0570 C.ar   84  TRP84       0.0191
     66  CZ3       21.2020   78.4390   53.3150 C.ar   84  TRP84       0.0001
     67  CH2       21.2160   78.7020   51.9480 C.ar   84  TRP84       0.0015
     68  N         25.3680   75.8770   53.3360 N.am   85  LYS85      -0.1966
     69  CA        25.9840   77.1460   53.0470 C.3    85  LYS85       0.1728
     70  C         25.2200   77.9180   51.9780 C.2    85  LYS85       0.2616
     71  O         24.8740   77.3730   50.9460 O.2    85  LYS85      -0.2715
     72  CB        27.4260   76.9210   52.6310 C.3    85  LYS85       0.0311
     73  CG        28.4220   77.7850   53.3560 C.3    85  LYS85       0.0038
     74  CD        28.7680   77.2440   54.7370 C.3    85  LYS85       0.0206
     75  CE        29.5500   78.3020   55.5430 C.3    85  LYS85       0.1093
     76  NZ        29.6340   77.9910   56.9960 N.3    85  LYS85      -0.1314
     77  N         24.9300   79.1840   52.2700 N.am   86  GLU86      -0.1963
     78  CA        24.2640   80.0850   51.3440 C.3    86  GLU86       0.1733
     79  C         25.1570   80.2510   50.1520 C.2    86  GLU86       0.2617
     80  O         26.3430   80.4100   50.3080 O.2    86  GLU86      -0.2715
     81  CB        24.0900   81.4580   51.9820 C.3    86  GLU86       0.0429
     82  CG        22.9010   81.5950   52.9130 C.3    86  GLU86       0.1163
     83  CD        23.1940   81.1230   54.3230 C.2    86  GLU86       0.3649
     84  OE1       24.3850   80.9110   54.6580 O.co2  86  GLU86      -0.2457
     85  OE2       22.2240   80.9750   55.1000 O.co2  86  GLU86      -0.2457
     86  N         24.5840   80.2430   48.9590 N.am   87  THR87      -0.1937
     87  CA        25.3740   80.3550   47.7430 C.3    87  THR87       0.2028
     88  C         26.2590   81.5860   47.7730 C.2    87  THR87       0.2642
     89  O         27.3700   81.5870   47.2530 O.2    87  THR87      -0.2714
     90  CB        24.4740   80.4190   46.5350 C.3    87  THR87       0.1808
     91  OG1       23.4420   79.4320   46.6520 O.3    87  THR87      -0.2208
     92  CG2       25.2170   79.9890   45.3230 C.3    87  THR87       0.0379
     93  N         25.7750   82.6550   48.3810 N.am   88  LEU88      -0.1977
     94  CA        26.5910   83.8470   48.4270 C.3    88  LEU88       0.1596
     95  C         27.8700   83.5620   49.1650 C.2    88  LEU88       0.2287
     96  O         28.9160   84.0290   48.7750 O.2    88  LEU88      -0.2864
     97  CB        25.8570   85.0350   49.0480 C.3    88  LEU88       0.0297
     98  CG        26.7320   86.2870   49.2440 C.3    88  LEU88       0.0022
     99  CD1       27.4000   86.7460   47.9470 C.3    88  LEU88       0.0001
    100  CD2       25.9360   87.4160   49.8650 C.3    88  LEU88       0.0001
    101  N         15.5900   77.5650   36.5570 N.3   112  ASP112     -0.1225
    102  CA        15.0210   77.2150   37.8610 C.3   112  ASP112      0.1805
    103  C         15.6110   78.0330   39.0090 C.2   112  ASP112      0.2597
    104  O         14.9090   78.8190   39.6420 O.2   112  ASP112     -0.2718
    105  CB        15.1960   75.7170   38.1290 C.3   112  ASP112      0.1424
    106  CG        14.1130   74.8570   37.4450 C.2   112  ASP112      0.3668
    107  OD1       13.8510   75.0660   36.2410 O.co2 112  ASP112     -0.2456
    108  OD2       13.4680   73.9520   38.0350 O.co2 112  ASP112     -0.2456
    109  N         16.9030   77.8440   39.2690 N.am  113  LEU113     -0.1979
    110  CA        17.6180   78.6080   40.2930 C.3   113  LEU113      0.1596
    111  C         17.2010   80.0770   40.1790 C.2   113  LEU113      0.2287
    112  O         16.5740   80.6130   41.0870 O.2   113  LEU113     -0.2864
    113  CB        19.1400   78.4080   40.1280 C.3   113  LEU113      0.0297
    114  CG        20.2410   78.7820   41.1350 C.3   113  LEU113      0.0022
    115  CD1       20.3280   80.3130   41.3130 C.3   113  LEU113      0.0001
    116  CD2       20.1220   78.0880   42.4710 C.3   113  LEU113      0.0001
    117  N         13.8190   80.8090   41.1080 N.3   116  SER116     -0.1217
    118  CA        13.5450   80.5320   42.5070 C.3   116  SER116      0.1889
    119  C         13.8680   81.7330   43.3980 C.2   116  SER116      0.2288
    120  O         13.5070   81.7590   44.5720 O.2   116  SER116     -0.2866
    121  CB        14.2420   79.2640   42.9790 C.3   116  SER116      0.2089
    122  OG        15.5690   79.5400   43.3560 O.3   116  SER116     -0.2183
    123  N         13.2040   81.7690   50.4620 N.3   122  LEU122     -0.1231
    124  CA        14.2680   80.9050   49.9930 C.3   122  LEU122      0.1693
    125  C         15.5750   81.6780   49.8610 C.2   122  LEU122      0.2592
    126  O         16.6550   81.1080   49.9930 O.2   122  LEU122     -0.2718
    127  CB        13.8860   80.2440   48.6750 C.3   122  LEU122      0.0284
    128  CG        14.8800   79.2260   48.1280 C.3   122  LEU122      0.0019
    129  CD1       15.1620   78.1610   49.1630 C.3   122  LEU122      0.0001
    130  CD2       14.3620   78.6230   46.8490 C.3   122  LEU122      0.0001
    131  N         15.4720   82.9820   49.6240 N.am  123  TRP123     -0.1962
    132  CA        16.6520   83.7980   49.4390 C.3   123  TRP123      0.1771
    133  C         16.5970   85.0770   50.2380 C.2   123  TRP123      0.2619
    134  O         15.5420   85.6640   50.4110 O.2   123  TRP123     -0.2715
    135  CB        16.8240   84.1150   47.9570 C.3   123  TRP123      0.0590
    136  CG        17.1190   82.9030   47.1530 C.ar  123  TRP123      0.0006
    137  CD1       16.2450   81.9150   46.8090 C.ar  123  TRP123      0.0946
    138  CD2       18.3870   82.5180   46.6200 C.ar  123  TRP123      0.0152
    139  NE1       16.8920   80.9470   46.0850 N.ar  123  TRP123     -0.2442
    140  CE2       18.2110   81.2980   45.9570 C.ar  123  TRP123      0.0810
    141  CE3       19.6610   83.0850   46.6390 C.ar  123  TRP123      0.0012
    142  CZ2       19.2490   80.6460   45.3140 C.ar  123  TRP123      0.0191
    143  CZ3       20.6890   82.4290   46.0040 C.ar  123  TRP123      0.0001
    144  CH2       20.4770   81.2280   45.3500 C.ar  123  TRP123      0.0015
    145  N         17.7380   85.5140   50.7320 N.am  124  LYS124     -0.1977
    146  CA        17.7660   86.7860   51.4140 C.3   124  LYS124      0.1596
    147  C         17.9200   87.8930   50.3730 C.2   124  LYS124      0.2287
    148  O         18.9290   87.9720   49.6690 O.2   124  LYS124     -0.2864
    149  CB        18.8600   86.8210   52.4970 C.3   124  LYS124      0.0298
    150  CG        18.6110   85.8290   53.6470 C.3   124  LYS124      0.0038
    151  CD        19.6720   85.9230   54.7560 C.3   124  LYS124      0.0206
    152  CE        19.5190   84.7680   55.7820 C.3   124  LYS124      0.1093
    153  NZ        20.5040   84.8090   56.9270 N.3   124  LYS124     -0.1314
    154  N         21.0620   89.0860   49.6800 N.3   127  ASP127     -0.1239
    155  CA        21.9160   88.0700   49.1030 C.3   127  ASP127      0.1674
    156  C         21.8360   88.1460   47.5750 C.2   127  ASP127      0.2266
    157  O         22.8600   88.2900   46.8960 O.2   127  ASP127     -0.2867
    158  CB        21.5400   86.6930   49.6090 C.3   127  ASP127      0.1410
    159  CG        22.3070   86.3040   50.8580 C.2   127  ASP127      0.3668
    160  OD1       23.4080   86.8360   51.0760 O.co2 127  ASP127     -0.2456
    161  OD2       21.8980   85.4650   51.6810 O.co2 127  ASP127     -0.2456
    162  N         16.2390   76.2270   53.5420 N.3   222  ALA222     -0.1245
    163  CA        16.0680   77.6020   53.1060 C.3   222  ALA222      0.1562
    164  C         15.4180   78.3700   54.2470 C.2   222  ALA222      0.2260
    165  O         15.8690   79.4540   54.6020 O.2   222  ALA222     -0.2867
    166  CB        15.2260   77.6740   51.8640 C.3   222  ALA222      0.0290
@<TRIPOS>BOND
     1   107   106   ar
     2   101   102    1
     3   106   108   ar
     4   106   105    1
     5   102   105    1
     6   102   103    1
     7   103   109   am
     8   103   104    2
     9   109   110    1
    10   113   110    1
    11   113   114    1
    12   111   110    1
    13   111   112    2
    14   117   118    1
    15   114   115    1
    16   114   116    1
    17     1     2    1
    18     4     3    2
    19     3     2    1
    20     3     7   am
    21   118   121    1
    22   118   119    1
    23     8     7    1
    24     8     9    1
    25     2     5    1
    26   121   122    1
    27     9    11   am
    28     9    10    2
    29   119   120    2
    30    13    14    2
    31    13    12    1
    32    11    12    1
    33    44    43    1
    34     5     6    1
    35    12    15    1
    36    15    16    1
    37    43    42    1
    38   142   144   ar
    39   142   140   ar
    40    92    90    1
    41   144   143   ar
    42   140   139   ar
    43   140   138   ar
    44   143   141   ar
    45   139   137   ar
    46    42    41    1
    47    23    21    1
    48    90    91    1
    49    90    87    1
    50    17    18    1
    51   138   141   ar
    52   138   136   ar
    53   137   136   ar
    54   130   128    1
    55   157   156    2
    56   136   135    1
    57    89    88    2
    58    41    40    1
    59    52    51   ar
    60   156   155    1
    61    35    34    1
    62    87    88    1
    63    87    86    1
    64    88    93   am
    65    18    21    1
    66    18    19    1
    67    21    22    1
    68    99    98    1
    69   135   132    1
    70   128   127    1
    71   128   129    1
    72    33    34   ar
    73    33    31   ar
    74    93    94    1
    75    94    97    1
    76    94    95    1
    77    34    32   ar
    78    51    53   ar
    79    51    50    1
    80   127   124    1
    81    40    37    1
    82    20    19    2
    83    96    95    2
    84    86    79   am
    85    97    98    1
    86    31    29   ar
    87   155   158    1
    88   155   154    1
    89    98   100    1
    90    49    50    1
    91    49    46    1
    92   132   131    1
    93   132   133    1
    94    32    30   ar
    95   158   159    1
    96   131   125   am
    97   148   147    2
    98    38    37    1
    99    38    39    2
   100   125   124    1
   101   125   126    2
   102    37    36    1
   103   124   123    1
   104    45    46    1
   105    79    80    2
   106    79    78    1
   107    29    30   ar
   108    29    28    1
   109   133   134    2
   110   133   145   am
   111   147   146    1
   112    46    47    1
   113   145   146    1
   114   159   160   ar
   115   159   161   ar
   116    62    63   ar
   117    62    60   ar
   118    71    70    2
   119    47    48    2
   120    28    25    1
   121    65    63   ar
   122    65    67   ar
   123    78    81    1
   124    78    77    1
   125   146   149    1
   126    63    61   ar
   127    60    59   ar
   128   166   163    1
   129    67    66   ar
   130    70    77   am
   131    70    69    1
   132    81    82    1
   133   149   150    1
   134    25    26    1
   135    25    24    1
   136    72    69    1
   137    72    73    1
   138    27    26    2
   139    82    83    1
   140    61    59   ar
   141    61    64   ar
   142    69    68    1
   143    59    58    1
   144   163   162    1
   145   163   164    1
   146    66    64   ar
   147    68    56   am
   148    73    74    1
   149   150   151    1
   150   164   165    2
   151    83    84   ar
   152    83    85   ar
   153    58    55    1
   154    56    55    1
   155    56    57    2
   156    74    75    1
   157   151   152    1
   158    55    54    1
   159    75    76    1
   160   152   153    1
