@<TRIPOS>MOLECULE
tmp/1h00A00.pdb
 189 181 0 0 0
SMALL
GASTEIGER

@<TRIPOS>ATOM
      1  N         -0.7730   25.0210   -1.8490 N.3     8  GLU8       -0.1231
      2  CA        -0.4330   23.8400   -1.0630 C.3     8  GLU8        0.1699
      3  C         -0.9700   23.9450    0.3600 C.2     8  GLU8        0.2592
      4  O         -1.3000   25.0330    0.8330 O.2     8  GLU8       -0.2718
      5  CB         1.0850   23.6500   -1.0250 C.3     8  GLU8        0.0402
      6  CG         1.8340   24.7640   -0.3110 C.3     8  GLU8        0.1161
      7  CD         3.3390   24.5740   -0.3510 C.2     8  GLU8        0.3649
      8  OE1        3.9050   24.5500   -1.4630 O.co2   8  GLU8       -0.2457
      9  OE2        3.9540   24.4490    0.7290 O.co2   8  GLU8       -0.2457
     10  N         -1.0520   22.8050    1.0390 N.am    9  LYS9       -0.1966
     11  CA        -1.5440   22.7640    2.4090 C.3     9  LYS9        0.1728
     12  C         -0.4370   23.1390    3.3870 C.2     9  LYS9        0.2616
     13  O          0.5780   22.4480    3.4870 O.2     9  LYS9       -0.2715
     14  CB        -2.0770   21.3720    2.7310 C.3     9  LYS9        0.0311
     15  CG        -2.7660   21.2270    4.0880 C.3     9  LYS9        0.0038
     16  CD        -3.0790   19.7690    4.3680 C.3     9  LYS9        0.0206
     17  CE        -3.7410   19.6260    5.7380 C.3     9  LYS9        0.1093
     18  NZ        -3.7290   18.2400    6.2150 N.3     9  LYS9       -0.1314
     19  N         -0.6390   24.2380    4.1030 N.am   10  ILE10      -0.1963
     20  CA         0.3320   24.7160    5.0780 C.3    10  ILE10       0.1727
     21  C          0.2490   23.9140    6.3720 C.2    10  ILE10       0.2617
     22  O          1.2520   23.7210    7.0580 O.2    10  ILE10      -0.2715
     23  CB         0.0960   26.2070    5.4040 C.3    10  ILE10       0.0290
     24  CG1        0.4370   27.0650    4.1870 C.3    10  ILE10       0.0022
     25  CG2        0.9220   26.6160    6.6130 C.3    10  ILE10       0.0023
     26  CD1        0.2180   28.5490    4.4020 C.3    10  ILE10       0.0001
     27  N         -0.9530   23.4550    6.7040 N.am   11  GLY11      -0.1940
     28  CA        -1.1330   22.6810    7.9180 C.3    11  GLY11       0.2014
     29  C         -2.5860   22.5410    8.3260 C.2    11  GLY11       0.2638
     30  O         -3.4920   22.7070    7.5060 O.2    11  GLY11      -0.2714
     31  N         -2.8070   22.2320    9.6000 N.am   12  GLU12      -0.1977
     32  CA        -4.1540   22.0650   10.1320 C.3    12  GLU12       0.1602
     33  C         -4.3640   22.9460   11.3610 C.2    12  GLU12       0.2287
     34  O         -4.5740   24.1540   11.2460 O.2    12  GLU12      -0.2864
     35  CB        -4.3930   20.6030   10.4890 C.3    12  GLU12       0.0415
     36  CG        -5.6890   20.4440   11.2850 C.3    12  GLU12       0.1163
     37  CD        -6.2060   19.0210   11.4000 C.2    12  GLU12       0.3649
     38  OE1       -5.5490   18.0920   10.8970 O.co2  12  GLU12      -0.2457
     39  OE2       -7.2950   18.8470   11.9920 O.co2  12  GLU12      -0.2457
     40  N         -5.3290   25.0350    6.5960 N.3    16  VAL16      -0.1245
     41  CA        -4.7190   26.2720    6.1200 C.3    16  VAL16       0.1561
     42  C         -3.9330   26.0110    4.8440 C.2    16  VAL16       0.2260
     43  O         -3.1430   25.0700    4.7710 O.2    16  VAL16      -0.2867
     44  CB        -3.7660   26.8670    7.1760 C.3    16  VAL16       0.0252
     45  CG1       -3.1660   28.1710    6.6680 C.3    16  VAL16       0.0019
     46  CG2       -4.5180   27.1010    8.4690 C.3    16  VAL16       0.0019
     47  N         -2.1110   33.2290    3.3010 N.3    29  ALA29      -0.1245
     48  CA        -2.3820   31.9930    4.0210 C.3    29  ALA29       0.1562
     49  C         -3.9000   32.0030    4.1690 C.2    29  ALA29       0.2260
     50  O         -4.4640   32.9050    4.7890 O.2    29  ALA29      -0.2867
     51  CB        -1.7150   32.0070    5.3910 C.3    29  ALA29       0.0290
     52  N         -7.1870   30.2690    5.6390 N.3    31  LYS31      -0.1245
     53  CA        -7.6650   29.3420    6.6520 C.3    31  LYS31       0.1561
     54  C         -9.1680   29.1250    6.5470 C.2    31  LYS31       0.2260
     55  O         -9.9490   30.0670    6.6640 O.2    31  LYS31      -0.2867
     56  CB        -7.3190   29.8700    8.0450 C.3    31  LYS31       0.0271
     57  CG        -7.7240   28.9440    9.1750 C.3    31  LYS31       0.0035
     58  CD        -7.3560   29.5290   10.5260 C.3    31  LYS31       0.0206
     59  CE        -7.7580   28.5910   11.6490 C.3    31  LYS31       0.1093
     60  NZ        -7.5020   29.1850   12.9870 N.3    31  LYS31      -0.1314
     61  N          0.5570   38.4800   13.0590 N.3    54  VAL54      -0.1245
     62  CA         0.2820   38.1650   11.6620 C.3    54  VAL54       0.1561
     63  C         -0.9950   38.8990   11.2620 C.2    54  VAL54       0.2260
     64  O         -2.0590   38.6950   11.8510 O.2    54  VAL54      -0.2867
     65  CB         0.1090   36.6440   11.4510 C.3    54  VAL54       0.0252
     66  CG1       -0.2360   36.3480    9.9970 C.3    54  VAL54       0.0019
     67  CG2        1.4030   35.9340   11.8170 C.3    54  VAL54       0.0019
     68  N         -4.8760   35.5470    5.7920 N.3    70  PHE70      -0.1227
     69  CA        -3.7740   36.1150    6.5630 C.3    70  PHE70       0.1736
     70  C         -2.5570   36.4480    5.7130 C.2    70  PHE70       0.2595
     71  O         -2.3790   35.9020    4.6260 O.2    70  PHE70      -0.2718
     72  CB        -3.3310   35.1220    7.6410 C.3    70  PHE70       0.0547
     73  CG        -4.3020   34.9700    8.7700 C.ar   70  PHE70      -0.0202
     74  CD1       -4.3740   35.9280    9.7770 C.ar   70  PHE70      -0.0042
     75  CD2       -5.1350   33.8590    8.8420 C.ar   70  PHE70      -0.0042
     76  CE1       -5.2600   35.7810   10.8410 C.ar   70  PHE70      -0.0003
     77  CE2       -6.0270   33.7040    9.9050 C.ar   70  PHE70      -0.0003
     78  CZ        -6.0870   34.6650   10.9050 C.ar   70  PHE70      -0.0000
     79  N         -1.7220   37.3500    6.2220 N.am   71  GLU71      -0.1965
     80  CA        -0.4830   37.7000    5.5420 C.3    71  GLU71       0.1733
     81  C          0.3030   36.3870    5.5960 C.2    71  GLU71       0.2616
     82  O          0.1880   35.6370    6.5630 O.2    71  GLU71      -0.2715
     83  CB         0.2580   38.8050    6.3140 C.3    71  GLU71       0.0429
     84  CG         1.5660   38.3580    6.9580 C.3    71  GLU71       0.1163
     85  CD         2.2250   39.4360    7.8080 C.2    71  GLU71       0.3649
     86  OE1        1.5750   39.9430    8.7450 O.co2  71  GLU71      -0.2457
     87  OE2        3.4010   39.7690    7.5470 O.co2  71  GLU71      -0.2457
     88  N          1.0930   36.1030    4.5700 N.am   72  PHE72      -0.1960
     89  CA         1.8570   34.8590    4.5170 C.3    72  PHE72       0.1771
     90  C          3.3110   34.9770    4.9790 C.2    72  PHE72       0.2619
     91  O          4.0120   35.9100    4.5940 O.2    72  PHE72      -0.2715
     92  CB         1.8500   34.3200    3.0810 C.3    72  PHE72       0.0574
     93  CG         2.6200   33.0390    2.9000 C.ar   72  PHE72      -0.0200
     94  CD1        2.0440   31.8130    3.2230 C.ar   72  PHE72      -0.0042
     95  CD2        3.9280   33.0570    2.4130 C.ar   72  PHE72      -0.0042
     96  CE1        2.7580   30.6220    3.0630 C.ar   72  PHE72      -0.0003
     97  CE2        4.6480   31.8770    2.2510 C.ar   72  PHE72      -0.0003
     98  CZ         4.0640   30.6560    2.5760 C.ar   72  PHE72      -0.0000
     99  N          3.7450   34.0400    5.8220 N.am   73  LEU73      -0.1963
    100  CA         5.1400   33.9820    6.2640 C.3    73  LEU73       0.1728
    101  C          5.6140   32.5880    5.8780 C.2    73  LEU73       0.2616
    102  O          4.8530   31.6280    5.9560 O.2    73  LEU73      -0.2715
    103  CB         5.2910   34.2190    7.7710 C.3    73  LEU73       0.0311
    104  CG         5.2390   35.7060    8.1400 C.3    73  LEU73       0.0022
    105  CD1        3.7880   36.1230    8.3000 C.3    73  LEU73       0.0001
    106  CD2        6.0090   35.9750    9.4240 C.3    73  LEU73       0.0001
    107  N          6.8730   32.4740    5.4710 N.am   74  HIS74      -0.1959
    108  CA         7.4050   31.2000    5.0020 C.3    74  HIS74       0.1787
    109  C          7.7490   30.1000    5.9940 C.2    74  HIS74       0.2620
    110  O          7.7690   28.9290    5.6220 O.2    74  HIS74      -0.2715
    111  CB         8.6310   31.4510    4.1220 C.3    74  HIS74       0.0785
    112  CG         8.3270   32.1900    2.8580 C.ar   74  HIS74       0.0821
    113  ND1        8.0310   33.5390    2.8300 N.ar   74  HIS74      -0.2267
    114  CD2        8.2620   31.7670    1.5740 C.ar   74  HIS74       0.1154
    115  CE1        7.7990   33.9100    1.5860 C.ar   74  HIS74       0.1986
    116  NE2        7.9320   32.8530    0.8020 N.ar   74  HIS74      -0.2212
    117  N          8.0100   30.4400    7.2480 N.am   75  GLN75      -0.1963
    118  CA         8.3820   29.3920    8.1860 C.3    75  GLN75       0.1733
    119  C          7.8670   29.6460    9.5880 C.2    75  GLN75       0.2616
    120  O          7.6160   30.7860    9.9580 O.2    75  GLN75      -0.2715
    121  CB         9.9070   29.2700    8.2070 C.3    75  GLN75       0.0408
    122  CG        10.4440   28.0190    8.8740 C.3    75  GLN75       0.0908
    123  CD        11.8860   27.7520    8.4940 C.2    75  GLN75       0.2608
    124  OE1       12.7630   27.6820    9.3520 O.2    75  GLN75      -0.2717
    125  NE2       12.1380   27.6000    7.1940 N.am   75  GLN75      -0.0878
    126  N          7.6810   28.5750   10.3540 N.am   76  ASP76      -0.1971
    127  CA         7.2360   28.7260   11.7350 C.3    76  ASP76       0.1709
    128  C          8.4040   28.3800   12.6540 C.2    76  ASP76       0.2293
    129  O          9.3920   27.7880   12.2130 O.2    76  ASP76      -0.2864
    130  CB         5.9980   27.8580   12.0300 C.3    76  ASP76       0.1436
    131  CG         6.2620   26.3660   11.9120 C.2    76  ASP76       0.3671
    132  OD1        7.1920   25.8600   12.5700 O.co2  76  ASP76      -0.2456
    133  OD2        5.5150   25.6930   11.1710 O.co2  76  ASP76      -0.2456
    134  N          9.6140   24.6010   12.9770 N.3    79  LYS79      -0.1245
    135  CA        10.4940   24.1660   11.9110 C.3    79  LYS79       0.1561
    136  C         11.8910   24.7770   12.0590 C.2    79  LYS79       0.2260
    137  O         12.8930   24.1320   11.8270 O.2    79  LYS79      -0.2867
    138  CB         9.8770   24.5340   10.5620 C.3    79  LYS79       0.0271
    139  CG         8.7400   23.5790   10.1900 C.3    79  LYS79       0.0035
    140  CD         7.6630   23.5810   11.2790 C.3    79  LYS79       0.0206
    141  CE         6.3140   23.0410   10.8670 C.3    79  LYS79       0.1093
    142  NZ         5.3660   22.9410   11.9860 N.3    79  LYS79      -0.1314
    143  N          2.1870   28.4230   20.7950 N.3   119  LYS119     -0.1245
    144  CA         3.0330   27.2560   20.5910 C.3   119  LYS119      0.1561
    145  C          3.9730   27.5550   19.4260 C.2   119  LYS119      0.2260
    146  O          3.6990   28.4250   18.6010 O.2   119  LYS119     -0.2867
    147  CB         2.1850   26.0070   20.3290 C.3   119  LYS119      0.0271
    148  CG         1.1540   26.1450   19.2380 C.3   119  LYS119      0.0035
    149  CD         0.1660   24.9850   19.3090 C.3   119  LYS119      0.0206
    150  CE        -1.0670   25.2630   18.4780 C.3   119  LYS119      0.1093
    151  NZ        -2.1110   24.2230   18.6980 N.3   119  LYS119     -0.1314
    152  N          4.4130   26.2500   16.6810 N.3   121  GLN121     -0.1231
    153  CA         3.7360   26.1330   15.3940 C.3   121  GLN121      0.1698
    154  C          2.9890   27.3900   14.9680 C.2   121  GLN121      0.2592
    155  O          2.7730   27.5920   13.7730 O.2   121  GLN121     -0.2718
    156  CB         2.7660   24.9490   15.3960 C.3   121  GLN121      0.0381
    157  CG         3.4130   23.6050   15.6910 C.3   121  GLN121      0.0905
    158  CD         3.3450   23.2280   17.1620 C.2   121  GLN121      0.2608
    159  OE1        3.9420   23.8820   18.0200 O.2   121  GLN121     -0.2717
    160  NE2        2.6070   22.1610   17.4590 N.am  121  GLN121     -0.0878
    161  N          2.5660   28.2270   15.9130 N.am  122  ASN122     -0.1974
    162  CA         1.8870   29.4480   15.4930 C.3   122  ASN122      0.1688
    163  C          2.7070   30.7210   15.6860 C.2   122  ASN122      0.2292
    164  O          2.1660   31.8250   15.7700 O.2   122  ASN122     -0.2864
    165  CB         0.4830   29.5920   16.1160 C.3   122  ASN122      0.1181
    166  CG         0.4650   29.4250   17.6150 C.2   122  ASN122      0.2629
    167  OD1        1.2970   29.9830   18.3310 O.2   122  ASN122     -0.2716
    168  ND2       -0.5190   28.6700   18.1060 N.am  122  ASN122     -0.0877
    169  N          5.4280   32.6520   13.6750 N.3   124  LEU124     -0.1245
    170  CA         6.0000   32.6930   12.3310 C.3   124  LEU124      0.1561
    171  C          7.1590   33.6640   12.1620 C.2   124  LEU124      0.2260
    172  O          7.1430   34.7640   12.7050 O.2   124  LEU124     -0.2867
    173  CB         4.8860   33.0290   11.3410 C.3   124  LEU124      0.0270
    174  CG         3.6410   32.1780   11.5920 C.3   124  LEU124      0.0019
    175  CD1        2.5520   32.6050   10.6370 C.3   124  LEU124      0.0001
    176  CD2        3.9730   30.6910   11.4250 C.3   124  LEU124      0.0001
    177  N          0.5410   34.1830   15.4810 N.3   134  ALA134     -0.1231
    178  CA        -0.5240   33.7920   14.5550 C.3   134  ALA134      0.1694
    179  C         -1.6300   33.0230   15.2750 C.2   134  ALA134      0.2592
    180  O         -1.4170   32.4720   16.3510 O.2   134  ALA134     -0.2718
    181  CB         0.0470   32.9370   13.4350 C.3   134  ALA134      0.0304
    182  N         -2.8510   33.2280   14.7660 N.am  135  ASP135     -0.1974
    183  CA        -4.0830   32.6540   15.3230 C.3   135  ASP135      0.1709
    184  C         -4.5310   33.3620   16.6100 C.2   135  ASP135      0.2293
    185  O         -5.1040   32.7360   17.5050 O.2   135  ASP135     -0.2864
    186  CB        -3.8900   31.1650   15.5930 C.3   135  ASP135      0.1436
    187  CG        -4.0100   30.3370   14.3420 C.2   135  ASP135      0.3671
    188  OD1       -4.0240   30.9270   13.2400 O.co2 135  ASP135     -0.2456
    189  OD2       -4.0910   29.1000   14.4640 O.co2 135  ASP135     -0.2456
@<TRIPOS>BOND
     1     1     2    1
     2     8     7   ar
     3     2     5    1
     4     2     3    1
     5     5     6    1
     6     7     6    1
     7     7     9   ar
     8     3     4    2
     9     3    10   am
    10   116   114   ar
    11   116   115   ar
    12    10    11    1
    13   114   112   ar
    14   115   113   ar
    15    97    95   ar
    16    97    98   ar
    17    11    14    1
    18    11    12    1
    19    95    93   ar
    20    98    96   ar
    21    14    15    1
    22   113   112   ar
    23   112   111    1
    24    93    92    1
    25    93    94   ar
    26    96    94   ar
    27    92    89    1
    28    47    48    1
    29    12    13    2
    30    12    19   am
    31    48    49    1
    32    48    51    1
    33    15    16    1
    34    19    20    1
    35   111   108    1
    36    49    50    2
    37    24    26    1
    38    24    23    1
    39    16    17    1
    40    89    88    1
    41    89    90    1
    42    88    81   am
    43    91    90    2
    44    71    70    2
    45    43    42    2
    46    42    41    1
    47    90    99   am
    48   108   107    1
    49   108   109    1
    50    20    23    1
    51    20    21    1
    52    23    25    1
    53   107   101   am
    54    80    81    1
    55    80    79    1
    56    80    83    1
    57    81    82    2
    58   110   109    2
    59    52    53    1
    60    70    79   am
    61    70    69    1
    62    17    18    1
    63    68    69    1
    64    99   100    1
    65   101   102    2
    66   101   100    1
    67   109   117   am
    68    41    40    1
    69    41    44    1
    70   100   103    1
    71    83    84    1
    72    21    27   am
    73    21    22    2
    74    54    53    1
    75    54    55    2
    76    69    72    1
    77    53    56    1
    78    45    44    1
    79    27    28    1
    80    84    85    1
    81    44    46    1
    82   125   123   am
    83   117   118    1
    84    30    29    2
    85    87    85   ar
    86    72    73    1
    87   103   104    1
    88    85    86   ar
    89    28    29    1
    90    56    57    1
    91   104   105    1
    92   104   106    1
    93   118   121    1
    94   118   119    1
    95   121   122    1
    96    29    31   am
    97   123   122    1
    98   123   124    2
    99    73    75   ar
   100    73    74   ar
   101    75    77   ar
   102    57    58    1
   103   119   120    2
   104   119   126   am
   105    31    32    1
   106    74    76   ar
   107    77    78   ar
   108    66    65    1
   109    32    35    1
   110    32    33    1
   111   139   138    1
   112   139   140    1
   113   126   127    1
   114    35    36    1
   115    58    59    1
   116   138   135    1
   117   175   174    1
   118    76    78   ar
   119   141   140    1
   120   141   142    1
   121    38    37   ar
   122   133   131   ar
   123    34    33    2
   124    63    62    1
   125    63    64    2
   126    36    37    1
   127   173   174    1
   128   173   170    1
   129    37    39   ar
   130   176   174    1
   131    65    62    1
   132    65    67    1
   133    59    60    1
   134    62    61    1
   135   127   130    1
   136   127   128    1
   137   137   136    2
   138   135   136    1
   139   135   134    1
   140   131   130    1
   141   131   132   ar
   142   171   170    1
   143   171   172    2
   144   129   128    2
   145   170   169    1
   146   188   187   ar
   147   181   178    1
   148   155   154    2
   149   187   189   ar
   150   187   186    1
   151   178   179    1
   152   178   177    1
   153   182   179   am
   154   182   183    1
   155   154   153    1
   156   154   161   am
   157   179   180    2
   158   183   186    1
   159   183   184    1
   160   153   156    1
   161   153   152    1
   162   156   157    1
   163   162   163    1
   164   162   161    1
   165   162   165    1
   166   163   164    2
   167   157   158    1
   168   165   166    1
   169   184   185    2
   170   158   160   am
   171   158   159    2
   172   166   168   am
   173   166   167    2
   174   150   151    1
   175   150   149    1
   176   146   145    2
   177   148   149    1
   178   148   147    1
   179   145   144    1
   180   147   144    1
   181   144   143    1
