@<TRIPOS>MOLECULE
tmp/1h08A00.pdb
 192 183 0 0 0
SMALL
GASTEIGER

@<TRIPOS>ATOM
      1  N         13.9280  -19.2860    6.8650 N.3     8  GLU8       -0.1245
      2  CA        13.5550  -18.4450    5.7370 C.3     8  GLU8        0.1567
      3  C         14.1290  -17.0420    5.8590 C.2     8  GLU8        0.2260
      4  O         14.4260  -16.5730    6.9580 O.2     8  GLU8       -0.2867
      5  CB        12.0340  -18.3740    5.6210 C.3     8  GLU8        0.0388
      6  CG        11.3280  -17.6720    6.6890 C.3     8  GLU8        0.1160
      7  CD         9.7340  -17.6600    6.5180 C.2     8  GLU8        0.3649
      8  OE1        9.2700  -18.0630    5.4950 O.co2   8  GLU8       -0.2457
      9  OE2        9.2460  -17.2500    7.4740 O.co2   8  GLU8       -0.2457
     10  N         13.5700  -13.4140    6.0150 N.3    10  ILE10      -0.1231
     11  CA        12.4450  -12.5410    6.3230 C.3    10  ILE10       0.1696
     12  C         12.7150  -11.0800    5.9970 C.2    10  ILE10       0.2632
     13  O         11.8680  -10.2160    6.2220 O.2    10  ILE10      -0.2714
     14  CB        12.0530  -12.6590    7.8060 C.3    10  ILE10       0.0266
     15  CG1       13.2350  -12.2610    8.6920 C.3    10  ILE10       0.0019
     16  CG2       11.6150  -14.0840    8.1100 C.3    10  ILE10       0.0020
     17  CD1       12.9270  -12.2810   10.1810 C.3    10  ILE10       0.0001
     18  N         13.8990  -10.7990    5.4700 N.am   11  GLY11      -0.1718
     19  CA        14.2110   -9.4280    5.1230 C.2    11  GLY11       0.1480
     20  C         15.6610   -9.1470    4.8050 C.2    11  GLY11       0.2820
     21  O         16.5660   -9.8660    5.2380 O.2    11  GLY11      -0.2669
     22  N         15.8650   -8.0910    4.0210 N.am   12  GLU12      -0.1929
     23  CA        17.1940   -7.6620    3.6180 C.3    12  GLU12       0.1736
     24  C         17.4910   -6.3050    4.2760 C.2    12  GLU12       0.2617
     25  O         17.5140   -5.2660    3.6130 O.2    12  GLU12      -0.2715
     26  CB        17.2770   -7.5350    2.1060 C.3    12  GLU12       0.0429
     27  CG        18.6200   -7.1120    1.5940 C.3    12  GLU12       0.1163
     28  CD        18.7820   -7.0910    0.1060 C.2    12  GLU12       0.3649
     29  OE1       17.8300   -7.3230   -0.6090 O.co2  12  GLU12      -0.2457
     30  OE2       19.8210   -6.6890   -0.4400 O.co2  12  GLU12      -0.2457
     31  N         17.7180   -6.3160    5.5920 N.am   13  GLY13      -0.1955
     32  CA        18.0230   -5.0880    6.3010 C.3    13  GLY13       0.1869
     33  C         19.0620   -4.2550    5.5770 C.2    13  GLY13       0.2309
     34  O         19.6820   -4.7010    4.6150 O.2    13  GLY13      -0.2863
     35  N         18.4060  -10.7880    7.2350 N.3    18  VAL18      -0.1245
     36  CA        17.7380  -11.3040    8.4280 C.3    18  VAL18       0.1561
     37  C         16.9990  -12.5970    8.1030 C.2    18  VAL18       0.2260
     38  O         16.2680  -12.6760    7.1180 O.2    18  VAL18      -0.2867
     39  CB        16.7380  -10.2700    9.0030 C.3    18  VAL18       0.0252
     40  CG1       16.1280  -10.7980   10.2890 C.3    18  VAL18       0.0019
     41  CG2       17.4500   -8.9430    9.2650 C.3    18  VAL18       0.0019
     42  N         15.3060  -14.7120   15.3110 N.3    31  ALA31      -0.1245
     43  CA        15.5670  -13.9450   14.1020 C.3    31  ALA31       0.1562
     44  C         17.0800  -13.7860   14.1060 C.2    31  ALA31       0.2260
     45  O         17.6500  -13.2520   15.0550 O.2    31  ALA31      -0.2867
     46  CB        14.8940  -12.5880   14.1740 C.3    31  ALA31       0.0290
     47  N         12.9460   -4.9090   20.5110 N.3    56  VAL56      -0.1245
     48  CA        13.1920   -6.3190   20.2270 C.3    56  VAL56       0.1561
     49  C         14.4380   -6.7560   20.9970 C.2    56  VAL56       0.2260
     50  O         15.5230   -6.2030   20.8130 O.2    56  VAL56      -0.2867
     51  CB        13.3940   -6.5620   18.7220 C.3    56  VAL56       0.0252
     52  CG1       13.5770   -8.0530   18.4470 C.3    56  VAL56       0.0019
     53  CG2       12.1890   -6.0360   17.9580 C.3    56  VAL56       0.0019
     54  N         18.2190  -12.2850   17.6890 N.3    72  PHE72      -0.1227
     55  CA        17.1210  -11.5350   18.2840 C.3    72  PHE72       0.1736
     56  C         15.9270  -12.4190   18.5940 C.2    72  PHE72       0.2595
     57  O         15.7680  -13.4960   18.0190 O.2    72  PHE72      -0.2718
     58  CB        16.6440  -10.4540   17.3170 C.3    72  PHE72       0.0547
     59  CG        17.6100   -9.3330   17.1290 C.ar   72  PHE72      -0.0202
     60  CD1       17.7350   -8.3410   18.0940 C.ar   72  PHE72      -0.0042
     61  CD2       18.3680   -9.2430   15.9700 C.ar   72  PHE72      -0.0042
     62  CE1       18.5990   -7.2710   17.9030 C.ar   72  PHE72      -0.0003
     63  CE2       19.2380   -8.1740   15.7710 C.ar   72  PHE72      -0.0003
     64  CZ        19.3500   -7.1860   16.7400 C.ar   72  PHE72      -0.0000
     65  N         15.0830  -11.9530   19.5060 N.am   73  GLU73      -0.1965
     66  CA        13.8690  -12.6840   19.8250 C.3    73  GLU73       0.1733
     67  C         13.0770  -12.5630   18.5250 C.2    73  GLU73       0.2616
     68  O         13.2170  -11.5720   17.8010 O.2    73  GLU73      -0.2715
     69  CB        13.1100  -11.9960   20.9570 C.3    73  GLU73       0.0429
     70  CG        12.5970  -10.6280   20.5830 C.3    73  GLU73       0.1163
     71  CD        11.6330  -10.0600   21.6030 C.2    73  GLU73       0.3649
     72  OE1       10.5860  -10.6900   21.8600 O.co2  73  GLU73      -0.2457
     73  OE2       11.9210   -8.9830   22.1470 O.co2  73  GLU73      -0.2457
     74  N         12.2550  -13.5600   18.2250 N.am   74  PHE74      -0.1960
     75  CA        11.4710  -13.5520   16.9970 C.3    74  PHE74       0.1771
     76  C         10.0670  -13.0000   17.1940 C.2    74  PHE74       0.2619
     77  O          9.3480  -13.4350   18.0880 O.2    74  PHE74      -0.2715
     78  CB        11.3680  -14.9800   16.4410 C.3    74  PHE74       0.0574
     79  CG        10.5620  -15.0880   15.1760 C.ar   74  PHE74      -0.0200
     80  CD1       11.0320  -14.5400   13.9870 C.ar   74  PHE74      -0.0042
     81  CD2        9.3250  -15.7250   15.1780 C.ar   74  PHE74      -0.0042
     82  CE1       10.2830  -14.6210   12.8150 C.ar   74  PHE74      -0.0003
     83  CE2        8.5660  -15.8120   14.0130 C.ar   74  PHE74      -0.0003
     84  CZ         9.0480  -15.2580   12.8280 C.ar   74  PHE74      -0.0000
     85  N          9.6830  -12.0270   16.3740 N.am   75  LEU75      -0.1963
     86  CA         8.3290  -11.5060   16.4590 C.3    75  LEU75       0.1728
     87  C          7.5420  -12.0490   15.2830 C.2    75  LEU75       0.2616
     88  O          8.1110  -12.4280   14.2600 O.2    75  LEU75      -0.2715
     89  CB         8.3000   -9.9780   16.4900 C.3    75  LEU75       0.0311
     90  CG         8.2950   -9.5670   17.9650 C.3    75  LEU75       0.0022
     91  CD1        9.7270   -9.4290   18.4340 C.3    75  LEU75       0.0001
     92  CD2        7.5130   -8.2820   18.1740 C.3    75  LEU75       0.0001
     93  N          6.2260  -12.0710   15.4420 N.am   76  HIS76      -0.1959
     94  CA         5.3120  -12.6260   14.4610 C.3    76  HIS76       0.1787
     95  C          5.2030  -11.9720   13.0810 C.2    76  HIS76       0.2620
     96  O          5.0790  -12.6720   12.0740 O.2    76  HIS76      -0.2715
     97  CB         3.9150  -12.7010   15.0960 C.3    76  HIS76       0.0785
     98  CG         3.9190  -13.1710   16.5230 C.ar   76  HIS76       0.0821
     99  ND1        5.0610  -13.6000   17.1660 N.ar   76  HIS76      -0.2267
    100  CD2        2.9120  -13.2970   17.4230 C.ar   76  HIS76       0.1154
    101  CE1        4.7580  -13.9720   18.3980 C.ar   76  HIS76       0.1986
    102  NE2        3.4600  -13.7980   18.5790 N.ar   76  HIS76      -0.2212
    103  N          5.2540  -10.6440   13.0210 N.am   77  GLN77      -0.1963
    104  CA         5.0860   -9.9430   11.7460 C.3    77  GLN77       0.1733
    105  C          5.5970   -8.5100   11.8310 C.2    77  GLN77       0.2616
    106  O          5.7080   -7.9600   12.9230 O.2    77  GLN77      -0.2715
    107  CB         3.5890   -9.9470   11.4080 C.3    77  GLN77       0.0408
    108  CG         3.1750   -9.3040   10.0980 C.3    77  GLN77       0.0908
    109  CD         1.7510   -9.6890    9.7140 C.2    77  GLN77       0.2608
    110  OE1        1.4750  -10.8470    9.3830 O.2    77  GLN77      -0.2717
    111  NE2        0.8410   -8.7310    9.7730 N.am   77  GLN77      -0.0878
    112  N          5.9120   -7.8980   10.6900 N.am   78  ASP78      -0.1971
    113  CA         6.3670   -6.5090   10.7240 C.3    78  ASP78       0.1709
    114  C          5.1980   -5.5810   10.4100 C.2    78  ASP78       0.2293
    115  O          4.1970   -6.0100    9.8360 O.2    78  ASP78      -0.2864
    116  CB         7.5430   -6.2740    9.7630 C.3    78  ASP78       0.1436
    117  CG         7.2240   -6.6370    8.3290 C.2    78  ASP78       0.3671
    118  OD1        6.9490   -7.8180    8.0530 O.co2  78  ASP78      -0.2456
    119  OD2        7.2650   -5.7400    7.4730 O.co2  78  ASP78      -0.2456
    120  N          4.8900   -3.1790    8.2460 N.3    80  LYS80      -0.1231
    121  CA         4.6310   -2.9400    6.8300 C.3    80  LYS80       0.1693
    122  C          3.6360   -3.9680    6.3030 C.2    80  LYS80       0.2591
    123  O          2.6560   -3.6160    5.6440 O.2    80  LYS80      -0.2718
    124  CB         5.9330   -3.0050    6.0230 C.3    80  LYS80       0.0285
    125  CG         5.7350   -2.9160    4.5170 C.3    80  LYS80       0.0035
    126  CD         5.1210   -1.5920    4.0970 C.3    80  LYS80       0.0206
    127  CE         4.8080   -1.5960    2.6070 C.3    80  LYS80       0.1093
    128  NZ         5.9760   -2.0750    1.8130 N.3    80  LYS80      -0.1314
    129  N          3.8780   -5.2400    6.6060 N.am   81  LYS81      -0.1980
    130  CA         2.9830   -6.2980    6.1470 C.3    81  LYS81       0.1596
    131  C          1.5910   -6.1240    6.7430 C.2    81  LYS81       0.2287
    132  O          0.5850   -6.3370    6.0650 O.2    81  LYS81      -0.2864
    133  CB         3.5420   -7.6750    6.5190 C.3    81  LYS81       0.0298
    134  CG         2.6790   -8.8380    6.0350 C.3    81  LYS81       0.0038
    135  CD         3.4030  -10.1610    6.2060 C.3    81  LYS81       0.0206
    136  CE         2.5560  -11.3300    5.7380 C.3    81  LYS81       0.1093
    137  NZ         3.3060  -12.6150    5.8060 N.3    81  LYS81      -0.1314
    138  N         -0.1620   -3.2620    4.8990 N.3    84  ASP84      -0.1239
    139  CA        -0.6100   -3.6950    3.5810 C.3    84  ASP84       0.1674
    140  C         -1.8540   -4.5600    3.7390 C.2    84  ASP84       0.2266
    141  O         -2.8090   -4.4270    2.9800 O.2    84  ASP84      -0.2867
    142  CB         0.4800   -4.4960    2.8540 C.3    84  ASP84       0.1410
    143  CG         1.7100   -3.6630    2.5360 C.2    84  ASP84       0.3668
    144  OD1        1.5740   -2.4370    2.3410 O.co2  84  ASP84      -0.2456
    145  OD2        2.8180   -4.2370    2.4650 O.co2  84  ASP84      -0.2456
    146  N         11.2810    2.7650   10.4240 N.3   121  LYS121     -0.1245
    147  CA        10.4230    2.5670    9.2660 C.3   121  LYS121      0.1561
    148  C          9.5060    1.3840    9.5370 C.2   121  LYS121      0.2260
    149  O          9.7970    0.5540   10.4010 O.2   121  LYS121     -0.2867
    150  CB        11.2650    2.3370    8.0040 C.3   121  LYS121      0.0271
    151  CG        12.3140    1.2650    8.1350 C.3   121  LYS121      0.0035
    152  CD        13.3000    1.3390    6.9780 C.3   121  LYS121      0.0206
    153  CE        14.4260    0.3450    7.1750 C.3   121  LYS121      0.1093
    154  NZ        15.4830    0.5140    6.1440 N.3   121  LYS121     -0.1314
    155  N          9.1090   -1.3340    8.2140 N.3   123  GLN123     -0.1231
    156  CA         9.8110   -2.6090    8.1000 C.3   123  GLN123      0.1698
    157  C         10.5680   -3.0540    9.3440 C.2   123  GLN123      0.2592
    158  O         10.8420   -4.2450    9.4980 O.2   123  GLN123     -0.2718
    159  CB        10.7660   -2.5820    6.9050 C.3   123  GLN123      0.0381
    160  CG        10.0680   -2.3640    5.5670 C.3   123  GLN123      0.0905
    161  CD        10.1320   -0.9200    5.0860 C.2   123  GLN123      0.2608
    162  OE1        9.5800   -0.0080    5.7090 O.2   123  GLN123     -0.2717
    163  NE2       10.8180   -0.7080    3.9650 N.am  123  GLN123     -0.0878
    164  N         10.9350   -2.1220   10.2200 N.am  124  ASN124     -0.1974
    165  CA        11.6300   -2.5340   11.4330 C.3   124  ASN124      0.1688
    166  C         10.8120   -2.3330   12.7020 C.2   124  ASN124      0.2292
    167  O         11.3540   -2.2740   13.8040 O.2   124  ASN124     -0.2864
    168  CB        13.0130   -1.8800   11.5680 C.3   124  ASN124      0.1181
    169  CG        12.9870   -0.3850   11.3920 C.2   124  ASN124      0.2629
    170  OD1       12.0610    0.2940   11.8350 O.2   124  ASN124     -0.2716
    171  ND2       14.0330    0.1460   10.7570 N.am  124  ASN124     -0.0877
    172  N          8.0400   -4.2390   14.6940 N.3   126  LEU126     -0.1245
    173  CA         7.5010   -5.5940   14.7450 C.3   126  LEU126      0.1561
    174  C          6.3540   -5.7850   15.7270 C.2   126  LEU126      0.2260
    175  O          6.3670   -5.2410   16.8310 O.2   126  LEU126     -0.2867
    176  CB         8.6410   -6.5550   15.0810 C.3   126  LEU126      0.0270
    177  CG         9.8700   -6.3130   14.2020 C.3   126  LEU126      0.0019
    178  CD1       10.9840   -7.1910   14.6770 C.3   126  LEU126      0.0001
    179  CD2        9.5420   -6.5980   12.7390 C.3   126  LEU126      0.0001
    180  N         12.9900   -2.5120   16.2590 N.3   136  ALA136     -0.1231
    181  CA        14.0800   -3.4360   15.9370 C.3   136  ALA136      0.1694
    182  C         15.2180   -2.6750   15.2480 C.2   136  ALA136      0.2592
    183  O         14.9980   -1.5960   14.6990 O.2   136  ALA136     -0.2718
    184  CB        13.5670   -4.5540   15.0330 C.3   136  ALA136      0.0304
    185  N         16.4210   -3.2460   15.2700 N.am  137  ASP137     -0.1974
    186  CA        17.6020   -2.6190   14.6620 C.3   137  ASP137      0.1709
    187  C         17.9780   -1.3290   15.3750 C.2   137  ASP137      0.2293
    188  O         18.6470   -0.4540   14.8230 O.2   137  ASP137     -0.2864
    189  CB        17.3620   -2.3540   13.1740 C.3   137  ASP137      0.1436
    190  CG        17.4000   -3.6270   12.3530 C.2   137  ASP137      0.3671
    191  OD1       17.4600   -4.7110   12.9730 O.co2 137  ASP137     -0.2456
    192  OD2       17.3720   -3.5510   11.1030 O.co2 137  ASP137     -0.2456
@<TRIPOS>BOND
     1    29    28   ar
     2    30    28   ar
     3    28    27    1
     4    27    26    1
     5   128   127    1
     6    26    23    1
     7   144   143   ar
     8   145   143   ar
     9   143   142    1
    10   127   126    1
    11   142   139    1
    12   141   140    2
    13   139   140    1
    14   139   138    1
    15    25    24    2
    16    23    22    1
    17    23    24    1
    18   163   161   am
    19    22    20   am
    20   126   125    1
    21    24    31   am
    22   125   124    1
    23    34    33    2
    24    20    19    1
    25    20    21    2
    26   161   160    1
    27   161   162    2
    28    19    18    2
    29    18    12    1
    30     8     7   ar
    31   160   159    1
    32    33    32    1
    33    31    32    1
    34     5     2    1
    35     5     6    1
    36   123   122    2
    37     2     3    1
    38     2     1    1
    39   136   137    1
    40   136   135    1
    41     3     4    2
    42    12    13    2
    43    12    11    1
    44    10    11    1
    45   124   121    1
    46   134   135    1
    47   134   133    1
    48   132   131    2
    49   154   153    1
    50   130   133    1
    51   130   129    1
    52   130   131    1
    53   122   129   am
    54   122   121    1
    55    11    14    1
    56     7     6    1
    57     7     9   ar
    58   121   120    1
    59   159   156    1
    60   152   153    1
    61   152   151    1
    62    38    37    2
    63    35    36    1
    64   119   117   ar
    65    14    16    1
    66    14    15    1
    67   150   151    1
    68   150   147    1
    69   118   117   ar
    70   156   155    1
    71   156   157    1
    72    37    36    1
    73   117   116    1
    74    36    39    1
    75    15    17    1
    76    39    41    1
    77    39    40    1
    78   147   148    1
    79   147   146    1
    80   157   158    2
    81   157   164   am
    82   110   109    2
    83   148   149    2
    84   109   111   am
    85   109   108    1
    86   116   113    1
    87   115   114    2
    88   108   107    1
    89   164   165    1
    90   114   113    1
    91   112   113    1
    92   112   105   am
    93   171   169   am
    94   192   190   ar
    95   169   168    1
    96   169   170    2
    97   107   104    1
    98   165   168    1
    99   165   166    1
   100   104   105    1
   101   104   103    1
   102   105   106    2
   103    96    95    2
   104   190   191   ar
   105   190   189    1
   106   166   167    2
   107   179   177    1
   108    82    84   ar
   109    82    80   ar
   110    84    83   ar
   111   103    95   am
   112    95    94    1
   113   189   186    1
   114    80    79   ar
   115    83    81   ar
   116    43    44    1
   117    43    46    1
   118    43    42    1
   119    44    45    2
   120   177   178    1
   121   177   176    1
   122    88    87    2
   123    94    97    1
   124    94    93    1
   125   186   185    1
   126   186   187    1
   127   172   173    1
   128   183   182    2
   129   173   176    1
   130   173   174    1
   131   188   187    2
   132   184   181    1
   133    97    98    1
   134    79    81   ar
   135    79    78    1
   136   182   185   am
   137   182   181    1
   138    87    93   am
   139    87    86    1
   140   174   175    2
   141    63    61   ar
   142    63    64   ar
   143   181   180    1
   144    61    59   ar
   145    85    86    1
   146    85    76   am
   147    78    75    1
   148    86    89    1
   149    89    90    1
   150    98    99   ar
   151    98   100   ar
   152    64    62   ar
   153    75    76    1
   154    75    74    1
   155    59    58    1
   156    59    60   ar
   157    99   101   ar
   158    76    77    2
   159    58    55    1
   160   100   102   ar
   161    54    55    1
   162    68    67    2
   163    62    60   ar
   164    53    51    1
   165    90    92    1
   166    90    91    1
   167    57    56    2
   168    74    67   am
   169    55    56    1
   170   101   102   ar
   171    52    51    1
   172    67    66    1
   173    56    65   am
   174    51    48    1
   175    65    66    1
   176    66    69    1
   177    48    47    1
   178    48    49    1
   179    70    69    1
   180    70    71    1
   181    50    49    2
   182    71    72   ar
   183    71    73   ar
