@<TRIPOS>MOLECULE
tmp/1h0aA00.pdb
 116 108 0 0 0
SMALL
GASTEIGER

@<TRIPOS>ATOM
      1  N         26.9340   42.3570    5.9230 N.3     4  SER4       -0.1217
      2  CA        26.1450   41.1410    6.2050 C.3     4  SER4        0.1889
      3  C         24.8420   41.6000    6.7910 C.2     4  SER4        0.2288
      4  O         23.8200   41.0810    6.4010 O.2     4  SER4       -0.2866
      5  CB        26.8770   40.0820    7.1280 C.3     4  SER4        0.2089
      6  OG        26.9450   40.5120    8.5190 O.3     4  SER4       -0.2183
      7  N         22.4230   42.9040    4.0330 N.3     7  ARG7       -0.1231
      8  CA        21.7800   41.8710    3.2650 C.3     7  ARG7        0.1694
      9  C         20.6750   41.1790    4.0780 C.2     7  ARG7        0.2591
     10  O         19.6930   40.7760    3.4960 O.2     7  ARG7       -0.2718
     11  CB        22.7880   40.7670    2.8320 C.3     7  ARG7        0.0321
     12  CG        23.6810   41.1130    1.7130 C.3     7  ARG7        0.0489
     13  CD        24.4910   40.0050    1.2420 C.3     7  ARG7        0.2205
     14  NE        23.6980   39.0360    0.5310 N.pl3   7  ARG7       -0.0865
     15  CZ        24.0780   37.7450    0.4320 C.cat   7  ARG7        0.5346
     16  NH1       25.1850   37.3740    1.0570 N.pl3   7  ARG7        0.1354
     17  NH2       23.3680   36.8340   -0.1880 N.pl3   7  ARG7        0.1354
     18  N         20.9800   40.9440    5.3470 N.am    8  ARG8       -0.1980
     19  CA        20.0090   40.3290    6.2890 C.3     8  ARG8        0.1597
     20  C         18.6980   41.1210    6.3670 C.2     8  ARG8        0.2287
     21  O         17.6090   40.5680    6.2050 O.2     8  ARG8       -0.2864
     22  CB        20.6850   40.1060    7.6530 C.3     8  ARG8        0.0334
     23  CG        19.8910   39.3990    8.7200 C.3     8  ARG8        0.0492
     24  CD        20.6670   39.2540   10.0940 C.3     8  ARG8        0.2205
     25  NE        21.9280   38.7980    9.8170 N.pl3   8  ARG8       -0.0865
     26  CZ        23.0750   39.3720   10.1650 C.cat   8  ARG8        0.5346
     27  NH1       23.1250   40.3970   11.0030 N.pl3   8  ARG8        0.1354
     28  NH2       24.1590   38.8720    9.6280 N.pl3   8  ARG8        0.1354
     29  N         16.7170   40.9670    3.0840 N.3    11  LYS11      -0.1245
     30  CA        16.0080   39.6860    3.1050 C.3    11  LYS11       0.1561
     31  C         14.7390   39.7990    3.9780 C.2    11  LYS11       0.2260
     32  O         13.6390   39.2600    3.6080 O.2    11  LYS11      -0.2867
     33  CB        16.9290   38.4740    3.4960 C.3    11  LYS11       0.0271
     34  CG        16.2020   37.1810    3.4210 C.3    11  LYS11       0.0035
     35  CD        17.0720   35.9440    3.7290 C.3    11  LYS11       0.0206
     36  CE        16.3260   34.6730    3.5550 C.3    11  LYS11       0.1093
     37  NZ        17.1650   33.4710    3.1570 N.3    11  LYS11      -0.1314
     38  N         16.4700   35.5430   13.4910 N.3    25  ARG25      -0.1245
     39  CA        17.4760   35.5890   12.4240 C.3    25  ARG25       0.1563
     40  C         18.7270   36.2380   12.7820 C.2    25  ARG25       0.2260
     41  O         19.8240   35.8280   12.4570 O.2    25  ARG25      -0.2867
     42  CB        16.8900   36.1060   11.0660 C.3    25  ARG25       0.0307
     43  CG        16.0730   35.0140   10.2560 C.3    25  ARG25       0.0489
     44  CD        15.0830   35.5660    9.2140 C.3    25  ARG25       0.2205
     45  NE        15.8630   36.5670    8.4270 N.pl3  25  ARG25      -0.0865
     46  CZ        16.8320   36.2910    7.5710 C.cat  25  ARG25       0.5346
     47  NH1       17.2160   35.0690    7.3100 N.pl3  25  ARG25       0.1354
     48  NH2       17.4490   37.2660    6.9040 N.pl3  25  ARG25       0.1354
     49  N         22.5120   34.2260   13.1540 N.3    29  SER29      -0.1202
     50  CA        23.2210   34.5480   11.9180 C.3    29  SER29       0.2020
     51  C         24.5850   33.8060   11.7810 C.2    29  SER29       0.2619
     52  O         25.1670   33.2730   12.7800 O.2    29  SER29      -0.2717
     53  CB        23.4240   36.0350   11.8740 C.3    29  SER29       0.2103
     54  OG        24.4920   36.4640   12.7150 O.3    29  SER29      -0.2182
     55  N         25.1600   33.8600   10.5460 N.am   30  ASN30      -0.1960
     56  CA        26.4850   33.3960   10.2510 C.3    30  ASN30       0.1819
     57  C         27.5610   34.2880   10.8270 C.2    30  ASN30       0.2621
     58  O         28.7470   33.9980   10.6940 O.2    30  ASN30      -0.2715
     59  CB        26.7100   33.1880    8.7300 C.3    30  ASN30       0.1195
     60  CG        26.1990   31.9500    8.2200 C.2    30  ASN30       0.2630
     61  OD1       26.1210   30.9490    8.9900 O.2    30  ASN30      -0.2716
     62  ND2       25.8830   31.9090    6.9250 N.am   30  ASN30      -0.0877
     63  N         27.2330   35.3400   11.5450 N.am   31  ASP31      -0.1971
     64  CA        28.2940   36.1670   12.1030 C.3    31  ASP31       0.1709
     65  C         29.0830   35.4010   13.1760 C.2    31  ASP31       0.2293
     66  O         28.4780   34.6750   13.9480 O.2    31  ASP31      -0.2864
     67  CB        27.7970   37.4510   12.7090 C.3    31  ASP31       0.1436
     68  CG        27.2190   38.4950   11.6190 C.2    31  ASP31       0.3671
     69  OD1       27.5900   38.4900   10.4030 O.co2  31  ASP31      -0.2456
     70  OD2       26.3840   39.3430   11.9520 O.co2  31  ASP31      -0.2456
     71  N         16.5770   27.0620   10.7030 N.3    63  ARG63      -0.1245
     72  CA        17.9760   27.2780   10.8910 C.3    63  ARG63       0.1563
     73  C         18.7510   25.9920   11.2690 C.2    63  ARG63       0.2260
     74  O         19.8840   25.7520   10.7620 O.2    63  ARG63      -0.2867
     75  CB        18.2510   28.3920   11.9290 C.3    63  ARG63       0.0307
     76  CG        17.9570   29.7050   11.4030 C.3    63  ARG63       0.0489
     77  CD        19.1850   30.2470   10.7800 C.3    63  ARG63       0.2205
     78  NE        19.0660   31.1380    9.6420 N.pl3  63  ARG63      -0.0865
     79  CZ        19.3910   32.3550    9.6720 C.cat  63  ARG63       0.5346
     80  NH1       19.6070   32.9530   10.7880 N.pl3  63  ARG63       0.1354
     81  NH2       19.3800   33.0050    8.5710 N.pl3  63  ARG63       0.1354
     82  N         19.9530   23.7950    8.2600 N.3    66  ASP66      -0.1239
     83  CA        20.9660   24.2840    7.3480 C.3    66  ASP66       0.1674
     84  C         22.1840   23.3280    7.2740 C.2    66  ASP66       0.2266
     85  O         22.2780   22.3110    8.0090 O.2    66  ASP66      -0.2867
     86  CB        21.4040   25.6880    7.6990 C.3    66  ASP66       0.1410
     87  CG        21.5360   26.5530    6.4720 C.2    66  ASP66       0.3668
     88  OD1       21.9060   26.0000    5.3690 O.co2  66  ASP66      -0.2456
     89  OD2       21.2570   27.7700    6.5710 O.co2  66  ASP66      -0.2456
     90  N         28.6320   25.2280    4.8760 N.3    69  LYS69      -0.1231
     91  CA        29.2480   26.4480    5.3110 C.3    69  LYS69       0.1693
     92  C         28.3460   27.3430    6.1950 C.2    69  LYS69       0.2592
     93  O         28.8340   28.2770    6.7320 O.2    69  LYS69      -0.2718
     94  CB        29.6890   27.2490    4.0900 C.3    69  LYS69       0.0285
     95  CG        28.5520   27.5460    3.1410 C.3    69  LYS69       0.0035
     96  CD        28.1020   28.9150    3.3940 C.3    69  LYS69       0.0206
     97  CE        27.2130   29.4070    2.2600 C.3    69  LYS69       0.1093
     98  NZ        26.4240   30.6210    2.6410 N.3    69  LYS69      -0.1314
     99  N         27.0670   27.0380    6.2770 N.am   70  ASN70      -0.1974
    100  CA        26.1160   27.7420    7.1330 C.3    70  ASN70       0.1688
    101  C         26.0140   27.0180    8.5290 C.2    70  ASN70       0.2292
    102  O         24.9890   27.1520    9.2130 O.2    70  ASN70      -0.2864
    103  CB        24.7410   27.7550    6.4670 C.3    70  ASN70       0.1181
    104  CG        24.6650   28.7030    5.2620 C.2    70  ASN70       0.2629
    105  OD1       25.3510   29.7080    5.2030 O.2    70  ASN70      -0.2716
    106  ND2       23.7350   28.3830    4.3440 N.am   70  ASN70      -0.0877
    107  N         24.5640   28.7700   11.6170 N.3    73  HIS73      -0.1241
    108  CA        23.1190   28.8170   11.7010 C.3    73  HIS73       0.1621
    109  C         22.6180   27.6930   12.6860 C.2    73  HIS73       0.2264
    110  O         21.7800   27.9420   13.5010 O.2    73  HIS73      -0.2867
    111  CB        22.4600   28.5810   10.3890 C.3    73  HIS73       0.0745
    112  CG        22.5520   29.8070    9.4960 C.ar   73  HIS73       0.0817
    113  ND1       22.1130   29.8160    8.1870 N.ar   73  HIS73      -0.2268
    114  CD2       22.9250   31.0700    9.7960 C.ar   73  HIS73       0.1154
    115  CE1       22.3310   31.0430    7.6740 C.ar   73  HIS73       0.1986
    116  NE2       22.7880   31.8360    8.6340 N.ar   73  HIS73      -0.2212
@<TRIPOS>BOND
     1    17    15    1
     2    15    14    2
     3    15    16    1
     4    14    13    1
     5    13    12    1
     6    12    11    1
     7    97    98    1
     8    97    96    1
     9    11     8    1
    10    29    30    1
    11    30    33    1
    12    30    31    1
    13    95    96    1
    14    95    94    1
    15    37    36    1
    16     8     7    1
    17     8     9    1
    18    34    33    1
    19    34    35    1
    20    10     9    2
    21    36    35    1
    22    32    31    2
    23     9    18   am
    24    94    91    1
    25   106   104   am
    26    90    91    1
    27   105   104    2
    28   104   103    1
    29    91    92    1
    30    18    19    1
    31    88    87   ar
    32     1     2    1
    33    92    99   am
    34    92    93    2
    35     2     3    1
    36     2     5    1
    37    21    20    2
    38    99   100    1
    39    19    20    1
    40    19    22    1
    41     4     3    2
    42   103   100    1
    43    87    89   ar
    44    87    86    1
    45    48    46    1
    46    62    60   am
    47     5     6    1
    48   100   101    1
    49    84    83    1
    50    84    85    2
    51    47    46    1
    52    83    86    1
    53    83    82    1
    54    46    45    2
    55    22    23    1
    56   115   113   ar
    57   115   116   ar
    58   113   112   ar
    59    60    59    1
    60    60    61    2
    61    45    44    1
    62   101   102    2
    63    81    79    1
    64   116   114   ar
    65    23    24    1
    66    59    56    1
    67    44    43    1
    68   112   114   ar
    69   112   111    1
    70    28    26    1
    71    78    79    2
    72    78    77    1
    73    79    80    1
    74    25    24    1
    75    25    26    2
    76    26    27    1
    77    56    55    1
    78    56    57    1
    79    43    42    1
    80   111   108    1
    81    69    68   ar
    82    55    51   am
    83    58    57    2
    84    71    72    1
    85    74    73    2
    86    77    76    1
    87    57    63   am
    88    72    73    1
    89    72    75    1
    90    42    39    1
    91    76    75    1
    92    63    64    1
    93   107   108    1
    94    68    70   ar
    95    68    67    1
    96   108   109    1
    97    51    50    1
    98    51    52    2
    99    53    50    1
   100    53    54    1
   101    50    49    1
   102    64    67    1
   103    64    65    1
   104    39    40    1
   105    39    38    1
   106    41    40    2
   107   109   110    2
   108    65    66    2
