@<TRIPOS>MOLECULE
tmp/1h0bA00.pdb
 153 153 0 0 0
SMALL
GASTEIGER

@<TRIPOS>ATOM
      1  N         18.3010   10.5370   16.5630 N.3    23  ASN23      -0.1240
      2  CA        18.3330   10.3850   18.0150 C.3    23  ASN23       0.1653
      3  C         19.3900    9.4520   18.6300 C.2    23  ASN23       0.2266
      4  O         19.0470    8.5070   19.3440 O.2    23  ASN23      -0.2867
      5  CB        16.9170    9.9470   18.4330 C.3    23  ASN23       0.1155
      6  CG        16.6200   10.1630   19.9030 C.2    23  ASN23       0.2627
      7  OD1       17.2010   11.0270   20.5600 O.2    23  ASN23      -0.2716
      8  ND2       15.6730    9.3830   20.4200 N.am   23  ASN23      -0.0877
      9  N         21.1670    9.4200   21.2400 N.3    25  TRP25      -0.1241
     10  CA        21.2900   10.0500   22.5490 C.3    25  TRP25       0.1605
     11  C         22.2450    9.4500   23.5770 C.2    25  TRP25       0.2264
     12  O         22.7440   10.1760   24.4360 O.2    25  TRP25      -0.2867
     13  CB        19.8980   10.1960   23.1820 C.3    25  TRP25       0.0550
     14  CG        19.2570    8.8870   23.5750 C.ar   25  TRP25       0.0003
     15  CD1       18.4030    8.1310   22.8230 C.ar   25  TRP25       0.0946
     16  CD2       19.4080    8.1980   24.8240 C.ar   25  TRP25       0.0152
     17  NE1       18.0120    7.0130   23.5280 N.ar   25  TRP25      -0.2442
     18  CE2       18.6130    7.0320   24.7590 C.ar   25  TRP25       0.0810
     19  CE3       20.1390    8.4540   25.9950 C.ar   25  TRP25       0.0012
     20  CZ2       18.5270    6.1220   25.8180 C.ar   25  TRP25       0.0191
     21  CZ3       20.0540    7.5470   27.0500 C.ar   25  TRP25       0.0001
     22  CH2       19.2530    6.3950   26.9510 C.ar   25  TRP25       0.0015
     23  N         21.4150    1.7730   26.5650 N.3    55  VAL55      -0.1245
     24  CA        20.8710    2.0950   25.2430 C.3    55  VAL55       0.1561
     25  C         21.7400    3.1560   24.5670 C.2    55  VAL55       0.2260
     26  O         22.1090    4.1530   25.1860 O.2    55  VAL55      -0.2867
     27  CB        19.4170    2.6060   25.3450 C.3    55  VAL55       0.0252
     28  CG1       18.9100    3.0600   23.9720 C.3    55  VAL55       0.0019
     29  CG2       18.5250    1.5070   25.8940 C.3    55  VAL55       0.0019
     30  N         17.8340    5.7630   19.8380 N.3    58  TYR58      -0.1241
     31  CA        16.4310    5.4360   19.6390 C.3    58  TYR58       0.1605
     32  C         15.9130    6.1330   18.3800 C.2    58  TYR58       0.2264
     33  O         15.1740    7.1220   18.4640 O.2    58  TYR58      -0.2867
     34  CB        15.5910    5.8270   20.8680 C.3    58  TYR58       0.0534
     35  CG        14.0990    5.5260   20.7530 C.ar   58  TYR58      -0.0201
     36  CD1       13.6410    4.2300   20.5100 C.ar   58  TYR58      -0.0009
     37  CD2       13.1480    6.5410   20.9090 C.ar   58  TYR58      -0.0009
     38  CE1       12.2700    3.9480   20.4260 C.ar   58  TYR58       0.0417
     39  CE2       11.7770    6.2700   20.8260 C.ar   58  TYR58       0.0417
     40  CZ        11.3490    4.9720   20.5840 C.ar   58  TYR58       0.1957
     41  OH         9.9980    4.7010   20.4960 O.3    58  TYR58      -0.2866
     42  N          8.2130   16.3430   21.2380 N.3    66  HIS66      -0.1226
     43  CA         9.3680   15.6370   21.7850 C.3    66  HIS66       0.1752
     44  C         10.3470   16.6880   22.2970 C.2    66  HIS66       0.2596
     45  O         11.0020   17.3650   21.5060 O.2    66  HIS66      -0.2718
     46  CB        10.0200   14.7940   20.6740 C.3    66  HIS66       0.0759
     47  CG        11.2640   14.0740   21.0940 C.ar   66  HIS66       0.0818
     48  ND1       11.2410   12.8250   21.6780 N.ar   66  HIS66      -0.2268
     49  CD2       12.5700   14.4090   20.9770 C.ar   66  HIS66       0.1154
     50  CE1       12.4790   12.4210   21.9000 C.ar   66  HIS66       0.1986
     51  NE2       13.3050   13.3640   21.4830 N.ar   66  HIS66      -0.2212
     52  N         10.4270   16.8310   23.6200 N.am   67  TRP67      -0.1976
     53  CA        11.3100   17.8110   24.2470 C.3    67  TRP67       0.1640
     54  C         11.1330   19.2160   23.6560 C.2    67  TRP67       0.2290
     55  O         12.1080   19.8980   23.3330 O.2    67  TRP67      -0.2864
     56  CB        12.7770   17.3600   24.1650 C.3    67  TRP67       0.0576
     57  CG        13.2150   16.5190   25.3410 C.ar   67  TRP67       0.0006
     58  CD1       13.8870   16.9500   26.4500 C.ar   67  TRP67       0.0946
     59  CD2       12.9950   15.1120   25.5290 C.ar   67  TRP67       0.0152
     60  NE1       14.0970   15.9010   27.3180 N.ar   67  TRP67      -0.2442
     61  CE2       13.5590   14.7630   26.7780 C.ar   67  TRP67       0.0810
     62  CE3       12.3770   14.1150   24.7650 C.ar   67  TRP67       0.0012
     63  CZ2       13.5230   13.4530   27.2830 C.ar   67  TRP67       0.0191
     64  CZ3       12.3410   12.8070   25.2680 C.ar   67  TRP67       0.0001
     65  CH2       12.9130   12.4940   26.5170 C.ar   67  TRP67       0.0015
     66  N          7.1700    4.7180   22.4940 N.3   105  ASP105     -0.1239
     67  CA         7.6390    5.4810   23.6420 C.3   105  ASP105      0.1674
     68  C          6.6270    6.6170   23.6910 C.2   105  ASP105      0.2266
     69  O          6.5580    7.4400   22.7730 O.2   105  ASP105     -0.2867
     70  CB         9.0530    6.0130   23.3900 C.3   105  ASP105      0.1410
     71  CG         9.8300    6.2550   24.6710 C.2   105  ASP105      0.3668
     72  OD1        9.4960    5.6450   25.7080 O.co2 105  ASP105     -0.2456
     73  OD2       10.8020    7.0340   24.6360 O.co2 105  ASP105     -0.2456
     74  N          5.0500    9.7730   25.9580 N.3   107  TRP107     -0.1241
     75  CA         5.3390   10.6940   27.0540 C.3   107  TRP107      0.1605
     76  C          4.1770   11.4550   27.6610 C.2   107  TRP107      0.2264
     77  O          3.3290   11.9950   26.9490 O.2   107  TRP107     -0.2867
     78  CB         6.4010   11.6940   26.6080 C.3   107  TRP107      0.0550
     79  CG         7.7100   11.0600   26.3480 C.ar  107  TRP107      0.0003
     80  CD1        8.2460   10.7480   25.1320 C.ar  107  TRP107      0.0946
     81  CD2        8.6690   10.6570   27.3290 C.ar  107  TRP107      0.0152
     82  NE1        9.4860   10.1760   25.2970 N.ar  107  TRP107     -0.2442
     83  CE2        9.7690   10.1090   26.6370 C.ar  107  TRP107      0.0810
     84  CE3        8.7060   10.7100   28.7310 C.ar  107  TRP107      0.0012
     85  CZ2       10.9010    9.6170   27.2980 C.ar  107  TRP107      0.0191
     86  CZ3        9.8300   10.2240   29.3910 C.ar  107  TRP107      0.0001
     87  CH2       10.9130    9.6850   28.6720 C.ar  107  TRP107      0.0015
     88  N          6.5900    7.6690   31.3470 N.3   123  GLU123     -0.1245
     89  CA         7.0430    7.1850   30.0530 C.3   123  GLU123      0.1567
     90  C          6.3720    5.8240   29.9070 C.2   123  GLU123      0.2260
     91  O          6.5850    4.9330   30.7280 O.2   123  GLU123     -0.2867
     92  CB         8.5610    7.0130   30.0450 C.3   123  GLU123      0.0388
     93  CG         9.1140    6.5000   28.7230 C.3   123  GLU123      0.1160
     94  CD        10.6080    6.2130   28.7680 C.2   123  GLU123      0.3649
     95  OE1       11.2150    6.2820   29.8590 O.co2 123  GLU123     -0.2457
     96  OE2       11.1800    5.9040   27.7030 O.co2 123  GLU123     -0.2457
     97  N          5.9510    2.6130   27.5380 N.3   125  MET125     -0.1245
     98  CA         6.4980    1.9180   26.3810 C.3   125  MET125      0.1570
     99  C          5.6780    0.6890   26.0450 C.2   125  MET125      0.2261
    100  O          5.0600    0.0900   26.9230 O.2   125  MET125     -0.2867
    101  CB         7.9400    1.4860   26.6380 C.3   125  MET125      0.0387
    102  CG         8.9040    2.6250   26.9030 C.3   125  MET125      0.0595
    103  SD        10.6000    2.0430   26.7430 S.3   125  MET125     -0.1393
    104  CE        10.8410    2.2180   24.9800 C.3   125  MET125      0.0692
    105  N         11.4420    6.1650   38.6360 N.3   158  TRP158     -0.1241
    106  CA        12.6260    6.9990   38.4070 C.3   158  TRP158      0.1605
    107  C         12.1990    8.4640   38.5330 C.2   158  TRP158      0.2264
    108  O         11.2770    8.7690   39.2880 O.2   158  TRP158     -0.2867
    109  CB        13.2060    6.7410   37.0070 C.3   158  TRP158      0.0550
    110  CG        13.7170    5.3410   36.7870 C.ar  158  TRP158      0.0003
    111  CD1       14.1720    4.4700   37.7380 C.ar  158  TRP158      0.0946
    112  CD2       13.8240    4.6520   35.5320 C.ar  158  TRP158      0.0152
    113  NE1       14.5550    3.2850   37.1550 N.ar  158  TRP158     -0.2442
    114  CE2       14.3520    3.3690   35.8030 C.ar  158  TRP158      0.0810
    115  CE3       13.5250    4.9950   34.2050 C.ar  158  TRP158      0.0012
    116  CZ2       14.5870    2.4260   34.7950 C.ar  158  TRP158      0.0191
    117  CZ3       13.7600    4.0570   33.2030 C.ar  158  TRP158      0.0001
    118  CH2       14.2860    2.7870   33.5060 C.ar  158  TRP158      0.0015
    119  N         10.6370    9.9630   36.5250 N.3   160  TRP160     -0.1241
    120  CA         9.2850    9.8870   35.9830 C.3   160  TRP160      0.1605
    121  C          8.9140    8.4090   36.1180 C.2   160  TRP160      0.2264
    122  O          9.7880    7.5740   36.3530 O.2   160  TRP160     -0.2867
    123  CB         9.2400   10.3280   34.5070 C.3   160  TRP160      0.0550
    124  CG        10.1600    9.5670   33.5900 C.ar  160  TRP160      0.0003
    125  CD1        9.9090    8.3700   32.9780 C.ar  160  TRP160      0.0946
    126  CD2       11.4880    9.9420   33.2050 C.ar  160  TRP160      0.0152
    127  NE1       11.0020    7.9740   32.2420 N.ar  160  TRP160     -0.2442
    128  CE2       11.9850    8.9190   32.3640 C.ar  160  TRP160      0.0810
    129  CE3       12.3080   11.0430   33.4910 C.ar  160  TRP160      0.0012
    130  CZ2       13.2670    8.9630   31.8080 C.ar  160  TRP160      0.0191
    131  CZ3       13.5840   11.0870   32.9350 C.ar  160  TRP160      0.0001
    132  CH2       14.0500   10.0510   32.1030 C.ar  160  TRP160      0.0015
    133  N          8.2050    4.8830   34.8560 N.3   162  TYR162     -0.1241
    134  CA         8.5100    4.0960   33.6660 C.3   162  TYR162      0.1605
    135  C          7.5720    2.9010   33.6660 C.2   162  TYR162      0.2264
    136  O          7.5420    2.1330   34.6310 O.2   162  TYR162     -0.2867
    137  CB         9.9690    3.6230   33.6940 C.3   162  TYR162      0.0534
    138  CG        10.3600    2.6490   32.5950 C.ar  162  TYR162     -0.0201
    139  CD1       10.8480    3.1030   31.3690 C.ar  162  TYR162     -0.0009
    140  CD2       10.2910    1.2700   32.8030 C.ar  162  TYR162     -0.0009
    141  CE1       11.2610    2.2020   30.3760 C.ar  162  TYR162      0.0417
    142  CE2       10.7010    0.3650   31.8210 C.ar  162  TYR162      0.0417
    143  CZ        11.1870    0.8340   30.6140 C.ar  162  TYR162      0.1957
    144  OH        11.6080   -0.0690   29.6600 O.3   162  TYR162     -0.2866
    145  N         15.0290    0.8600   20.1140 N.3   206  GLU206     -0.1245
    146  CA        16.0650    1.1780   21.0920 C.3   206  GLU206      0.1567
    147  C         17.2160    0.2570   20.6980 C.2   206  GLU206      0.2260
    148  O         17.0220   -0.9530   20.5370 O.2   206  GLU206     -0.2867
    149  CB        15.6180    0.8670   22.5180 C.3   206  GLU206      0.0388
    150  CG        14.5850    1.8190   23.0690 C.3   206  GLU206      0.1160
    151  CD        14.4570    1.7050   24.5730 C.2   206  GLU206      0.3649
    152  OE1       13.9020    0.7000   25.0570 O.co2 206  GLU206     -0.2457
    153  OE2       14.9230    2.6230   25.2740 O.co2 206  GLU206     -0.2457
@<TRIPOS>BOND
     1     1     2    1
     2     2     5    1
     3     2     3    1
     4    32    33    2
     5    32    31    1
     6     5     6    1
     7     3     4    2
     8    31    30    1
     9    31    34    1
    10     6     8   am
    11     6     7    2
    12   145   146    1
    13    38    36   ar
    14    38    40   ar
    15    41    40    1
    16    36    35   ar
    17   148   147    2
    18    40    39   ar
    19    46    47    1
    20    46    43    1
    21   147   146    1
    22    35    34    1
    23    35    37   ar
    24    39    37   ar
    25    49    47   ar
    26    49    51   ar
    27   146   149    1
    28    47    48   ar
    29    42    43    1
    30     9    10    1
    31    51    50   ar
    32    45    44    2
    33    48    50   ar
    34    43    44    1
    35    44    52   am
    36    66    67    1
    37   149   150    1
    38    10    13    1
    39    10    11    1
    40    69    68    2
    41    15    17   ar
    42    15    14   ar
    43   150   151    1
    44    13    14    1
    45    55    54    2
    46    70    67    1
    47    70    71    1
    48    17    18   ar
    49    14    16   ar
    50    11    12    2
    51    52    53    1
    52    67    68    1
    53    54    53    1
    54    28    27    1
    55    56    53    1
    56    56    57    1
    57    25    26    2
    58    25    24    1
    59   151   152   ar
    60   151   153   ar
    61    73    71   ar
    62    71    72   ar
    63    18    16   ar
    64    18    20   ar
    65    62    64   ar
    66    62    59   ar
    67    16    19   ar
    68   104   103    1
    69    80    82   ar
    70    80    79   ar
    71    24    27    1
    72    24    23    1
    73    64    65   ar
    74    82    83   ar
    75    57    59   ar
    76    57    58   ar
    77    27    29    1
    78    59    61   ar
    79    20    22   ar
    80    74    75    1
    81    19    21   ar
    82    99    98    1
    83    99   100    2
    84    79    78    1
    85    79    81   ar
    86    98   101    1
    87    98    97    1
    88    58    60   ar
    89    65    63   ar
    90    78    75    1
    91    83    85   ar
    92    83    81   ar
    93   101   102    1
    94   103   102    1
    95    61    63   ar
    96    61    60   ar
    97    77    76    2
    98    22    21   ar
    99    75    76    1
   100    85    87   ar
   101    81    84   ar
   102    96    94   ar
   103    87    86   ar
   104    93    94    1
   105    93    92    1
   106    84    86   ar
   107    94    95   ar
   108   144   143    1
   109    90    89    1
   110    90    91    2
   111    92    89    1
   112    89    88    1
   113   141   143   ar
   114   141   139   ar
   115   143   142   ar
   116   139   138   ar
   117   130   132   ar
   118   130   128   ar
   119   142   140   ar
   120   132   131   ar
   121   127   128   ar
   122   127   125   ar
   123   128   126   ar
   124   138   140   ar
   125   138   137    1
   126   131   129   ar
   127   125   124   ar
   128   117   118   ar
   129   117   115   ar
   130   126   129   ar
   131   126   124   ar
   132   118   116   ar
   133   124   123    1
   134   134   135    1
   135   134   137    1
   136   134   133    1
   137   135   136    2
   138   115   112   ar
   139   123   120    1
   140   116   114   ar
   141   112   114   ar
   142   112   110   ar
   143   114   113   ar
   144   120   121    1
   145   120   119    1
   146   121   122    2
   147   110   109    1
   148   110   111   ar
   149   109   106    1
   150   113   111   ar
   151   106   107    1
   152   106   105    1
   153   107   108    2
