@<TRIPOS>MOLECULE
tmp/1h0gA00.pdb
 241 235 0 0 0
SMALL
GASTEIGER

@<TRIPOS>ATOM
      1  N         18.6710   47.3050  110.5360 N.3     8  TYR8       -0.1241
      2  CA        17.4150   46.8760  109.9530 C.3     8  TYR8        0.1605
      3  C         16.8220   45.8980  110.9120 C.2     8  TYR8        0.2264
      4  O         17.5450   45.1170  111.5020 O.2     8  TYR8       -0.2867
      5  CB        17.6230   46.1270  108.6290 C.3     8  TYR8        0.0534
      6  CG        17.6130   47.0190  107.4250 C.ar    8  TYR8       -0.0201
      7  CD1       18.7390   47.7450  107.0730 C.ar    8  TYR8       -0.0009
      8  CD2       16.4540   47.1740  106.6670 C.ar    8  TYR8       -0.0009
      9  CE1       18.7240   48.6080  106.0040 C.ar    8  TYR8        0.0417
     10  CE2       16.4190   48.0350  105.5920 C.ar    8  TYR8        0.0417
     11  CZ        17.5600   48.7490  105.2640 C.ar    8  TYR8        0.1957
     12  OH        17.5510   49.5730  104.1780 O.3     8  TYR8       -0.2866
     13  N          9.4130   44.7830  106.3010 N.3    49  PHE49      -0.1241
     14  CA         9.2700   45.7090  105.1760 C.3    49  PHE49       0.1605
     15  C          7.7960   46.0360  104.9680 C.2    49  PHE49       0.2264
     16  O          6.9270   45.2000  105.2380 O.2    49  PHE49      -0.2867
     17  CB         9.7110   45.0670  103.8600 C.3    49  PHE49       0.0534
     18  CG        11.1840   45.0920  103.6250 C.ar   49  PHE49      -0.0203
     19  CD1       11.8430   46.3020  103.3990 C.ar   49  PHE49      -0.0042
     20  CD2       11.9190   43.9070  103.6530 C.ar   49  PHE49      -0.0042
     21  CE1       13.2200   46.3290  103.2070 C.ar   49  PHE49      -0.0003
     22  CE2       13.2930   43.9180  103.4670 C.ar   49  PHE49      -0.0003
     23  CZ        13.9480   45.1330  103.2450 C.ar   49  PHE49      -0.0000
     24  N         12.0760   46.2010   99.5450 N.3    94  GLY94      -0.1210
     25  CA        12.7430   44.9440   99.7990 C.3    94  GLY94       0.1956
     26  C         12.7390   44.1780   98.4820 C.2    94  GLY94       0.2611
     27  O         12.1540   44.6230   97.4940 O.2    94  GLY94      -0.2717
     28  N         13.3710   43.0190   98.4760 N.am   95  TRP95      -0.1976
     29  CA        13.4820   42.2270   97.2640 C.3    95  TRP95       0.1640
     30  C         12.1740   41.6250   96.7670 C.2    95  TRP95       0.2290
     31  O         11.7680   41.8550   95.6250 O.2    95  TRP95      -0.2864
     32  CB        14.5340   41.1350   97.4650 C.3    95  TRP95       0.0576
     33  CG        14.7300   40.3080   96.2410 C.ar   95  TRP95       0.0006
     34  CD1       14.1420   39.1020   95.9560 C.ar   95  TRP95       0.0946
     35  CD2       15.4950   40.6680   95.0850 C.ar   95  TRP95       0.0152
     36  NE1       14.4970   38.6940   94.6860 N.ar   95  TRP95      -0.2442
     37  CE2       15.3270   39.6360   94.1310 C.ar   95  TRP95       0.0810
     38  CE3       16.2990   41.7650   94.7590 C.ar   95  TRP95       0.0012
     39  CZ2       15.9400   39.6700   92.8740 C.ar   95  TRP95       0.0191
     40  CZ3       16.9100   41.8010   93.5000 C.ar   95  TRP95       0.0001
     41  CH2       16.7260   40.7550   92.5750 C.ar   95  TRP95       0.0015
     42  N         13.2730   51.1660   99.9360 N.3   140  ASP140     -0.1239
     43  CA        14.1470   50.0980   99.4700 C.3   140  ASP140      0.1674
     44  C         13.6520   49.4540   98.1830 C.2   140  ASP140      0.2266
     45  O         13.3300   48.2630   98.1520 O.2   140  ASP140     -0.2867
     46  CB        14.2920   49.0370  100.5640 C.3   140  ASP140      0.1410
     47  CG        15.1170   49.5290  101.7440 C.2   140  ASP140      0.3668
     48  OD1       15.1250   50.7620  102.0200 O.co2 140  ASP140     -0.2456
     49  OD2       15.7520   48.6880  102.4070 O.co2 140  ASP140     -0.2456
     50  N         14.3940   47.8810   94.8380 N.3   142  GLU142     -0.1231
     51  CA        15.5650   47.2330   94.2610 C.3   142  GLU142      0.1699
     52  C         15.2960   46.7550   92.8370 C.2   142  GLU142      0.2592
     53  O         14.9210   45.5990   92.6460 O.2   142  GLU142     -0.2718
     54  CB        15.9790   46.0400   95.1400 C.3   142  GLU142      0.0402
     55  CG        15.8600   46.3090   96.6340 C.3   142  GLU142      0.1161
     56  CD        16.2440   45.1210   97.5280 C.2   142  GLU142      0.3649
     57  OE1       16.1650   43.9530   97.0910 O.co2 142  GLU142     -0.2457
     58  OE2       16.6050   45.3600   98.6950 O.co2 142  GLU142     -0.2457
     59  N         15.4680   47.6090   91.8260 N.am  143  TYR143     -0.1976
     60  CA        15.9160   49.0000   91.9310 C.3   143  TYR143      0.1639
     61  C         15.2820   49.7660   90.7630 C.2   143  TYR143      0.2290
     62  O         15.0340   49.1940   89.7090 O.2   143  TYR143     -0.2864
     63  CB        17.4390   49.0970   91.7610 C.3   143  TYR143      0.0560
     64  CG        18.2470   48.4880   92.8770 C.ar  143  TYR143     -0.0198
     65  CD1       18.5710   49.2300   94.0090 C.ar  143  TYR143     -0.0009
     66  CD2       18.6490   47.1530   92.8240 C.ar  143  TYR143     -0.0009
     67  CE1       19.2760   48.6610   95.0680 C.ar  143  TYR143      0.0417
     68  CE2       19.3470   46.5760   93.8710 C.ar  143  TYR143      0.0417
     69  CZ        19.6570   47.3340   94.9930 C.ar  143  TYR143      0.1957
     70  OH        20.3230   46.7550   96.0470 O.3   143  TYR143     -0.2866
     71  N         17.7920   52.5730  100.5020 N.3   182  ALA182     -0.1245
     72  CA        18.8380   51.5570  100.5210 C.3   182  ALA182      0.1562
     73  C         19.3560   51.5870   99.0960 C.2   182  ALA182      0.2260
     74  O         18.5910   51.4180   98.1580 O.2   182  ALA182     -0.2867
     75  CB        18.2540   50.1940  100.8380 C.3   182  ALA182      0.0290
     76  N         26.6650   46.6540   88.9420 N.3   188  PHE188     -0.1227
     77  CA        25.6210   46.2110   88.0360 C.3   188  PHE188      0.1736
     78  C         24.2610   46.8150   88.3280 C.2   188  PHE188      0.2595
     79  O         23.6480   47.3880   87.4470 O.2   188  PHE188     -0.2718
     80  CB        25.5660   44.6780   88.0130 C.3   188  PHE188      0.0547
     81  CG        26.8950   44.0550   87.6670 C.ar  188  PHE188     -0.0202
     82  CD1       27.7000   43.4980   88.6530 C.ar  188  PHE188     -0.0042
     83  CD2       27.3800   44.1010   86.3600 C.ar  188  PHE188     -0.0042
     84  CE1       28.9780   43.0000   88.3430 C.ar  188  PHE188     -0.0003
     85  CE2       28.6600   43.6040   86.0450 C.ar  188  PHE188     -0.0003
     86  CZ        29.4560   43.0560   87.0380 C.ar  188  PHE188     -0.0000
     87  N         23.7680   46.6850   89.5500 N.am  189  PHE189     -0.1976
     88  CA        22.4810   47.2850   89.8570 C.3   189  PHE189      0.1639
     89  C         22.6070   48.8150   89.9530 C.2   189  PHE189      0.2290
     90  O         21.6960   49.5370   89.5930 O.2   189  PHE189     -0.2864
     91  CB        21.9270   46.7180   91.1600 C.3   189  PHE189      0.0560
     92  CG        21.1240   45.4600   90.9820 C.ar  189  PHE189     -0.0200
     93  CD1       20.0100   45.4440   90.1470 C.ar  189  PHE189     -0.0042
     94  CD2       21.4580   44.3000   91.6800 C.ar  189  PHE189     -0.0042
     95  CE1       19.2350   44.2930   90.0090 C.ar  189  PHE189     -0.0003
     96  CE2       20.6940   43.1460   91.5500 C.ar  189  PHE189     -0.0003
     97  CZ        19.5820   43.1380   90.7170 C.ar  189  PHE189     -0.0000
     98  N         24.1180   49.0250  100.1000 N.3   210  MET210     -0.1245
     99  CA        24.0320   47.6030  100.3890 C.3   210  MET210      0.1570
    100  C         25.3510   46.9970   99.9670 C.2   210  MET210      0.2261
    101  O         25.4280   46.1980   99.0230 O.2   210  MET210     -0.2867
    102  CB        22.8650   46.9970   99.6200 C.3   210  MET210      0.0387
    103  CG        21.5180   47.4520  100.1880 C.3   210  MET210      0.0595
    104  SD        20.0770   46.7870   99.3260 S.3   210  MET210     -0.1393
    105  CE        19.5710   48.2160   98.4350 C.3   210  MET210      0.0692
    106  N         27.1850   44.5640  100.4180 N.3   212  TYR212     -0.1227
    107  CA        27.2880   43.1440  100.7420 C.3   212  TYR212      0.1736
    108  C         26.5730   42.3820   99.6180 C.2   212  TYR212      0.2595
    109  O         26.0670   42.9950   98.6660 O.2   212  TYR212     -0.2718
    110  CB        26.7240   42.8200  102.1410 C.3   212  TYR212      0.0548
    111  CG        25.5370   43.6400  102.5820 C.ar  212  TYR212     -0.0200
    112  CD1       24.2640   43.3830  102.0820 C.ar  212  TYR212     -0.0009
    113  CD2       25.6910   44.6860  103.4950 C.ar  212  TYR212     -0.0009
    114  CE1       23.1610   44.1490  102.4850 C.ar  212  TYR212      0.0417
    115  CE2       24.5930   45.4670  103.9050 C.ar  212  TYR212      0.0417
    116  CZ        23.3350   45.1920  103.3980 C.ar  212  TYR212      0.1957
    117  OH        22.2460   45.9340  103.7930 O.3   212  TYR212     -0.2866
    118  N         26.5500   41.0550   99.7090 N.am  213  ASP213     -0.1974
    119  CA        25.9670   40.2320   98.6540 C.3   213  ASP213      0.1709
    120  C         26.7600   40.4870   97.3700 C.2   213  ASP213      0.2293
    121  O         26.2210   40.3810   96.2700 O.2   213  ASP213     -0.2864
    122  CB        24.5030   40.5910   98.3940 C.3   213  ASP213      0.1436
    123  CG        23.6570   40.4850   99.6260 C.2   213  ASP213      0.3671
    124  OD1       23.8670   39.5260  100.4150 O.co2 213  ASP213     -0.2456
    125  OD2       22.7780   41.3620   99.8000 O.co2 213  ASP213     -0.2456
    126  N         24.6060   32.7970   92.6330 N.3   218  TRP218     -0.1227
    127  CA        24.4350   33.0940   91.2180 C.3   218  TRP218      0.1737
    128  C         25.7770   33.3300   90.5500 C.2   218  TRP218      0.2595
    129  O         25.8670   33.4110   89.3270 O.2   218  TRP218     -0.2718
    130  CB        23.5630   34.3450   91.0550 C.3   218  TRP218      0.0564
    131  CG        24.0710   35.5110   91.8620 C.ar  218  TRP218      0.0003
    132  CD1       25.1230   36.3330   91.5580 C.ar  218  TRP218      0.0946
    133  CD2       23.6080   35.9170   93.1540 C.ar  218  TRP218      0.0152
    134  NE1       25.3450   37.2220   92.5850 N.ar  218  TRP218     -0.2442
    135  CE2       24.4280   36.9870   93.5770 C.ar  218  TRP218      0.0810
    136  CE3       22.5810   35.4760   93.9990 C.ar  218  TRP218      0.0012
    137  CZ2       24.2510   37.6230   94.8140 C.ar  218  TRP218      0.0191
    138  CZ3       22.4060   36.1080   95.2290 C.ar  218  TRP218      0.0001
    139  CH2       23.2390   37.1700   95.6210 C.ar  218  TRP218      0.0015
    140  N         26.8240   33.4420   91.3500 N.am  219  GLU219     -0.1979
    141  CA        28.1420   33.7030   90.8070 C.3   219  GLU219      0.1602
    142  C         28.8570   32.4240   90.4240 C.2   219  GLU219      0.2287
    143  O         28.6090   31.3610   90.9940 O.2   219  GLU219     -0.2864
    144  CB        28.9700   34.4820   91.8210 C.3   219  GLU219      0.0415
    145  CG        29.7400   35.6650   91.2380 C.3   219  GLU219      0.1163
    146  CD        28.8560   36.6230   90.4420 C.2   219  GLU219      0.3649
    147  OE1       28.7020   36.4110   89.2160 O.co2 219  GLU219     -0.2457
    148  OE2       28.3110   37.5810   91.0430 O.co2 219  GLU219     -0.2457
    149  N         25.1660   38.3790  108.5020 N.3   290  TYR290     -0.1241
    150  CA        24.8950   37.0070  108.0790 C.3   290  TYR290      0.1605
    151  C         25.9760   36.5980  107.1110 C.2   290  TYR290      0.2264
    152  O         26.6840   37.4520  106.5620 O.2   290  TYR290     -0.2867
    153  CB        23.5500   36.9010  107.3450 C.3   290  TYR290      0.0534
    154  CG        23.4890   37.7700  106.1020 C.ar  290  TYR290     -0.0201
    155  CD1       23.1700   39.1330  106.2050 C.ar  290  TYR290     -0.0009
    156  CD2       23.8260   37.2600  104.8350 C.ar  290  TYR290     -0.0009
    157  CE1       23.1860   39.9680  105.1030 C.ar  290  TYR290      0.0417
    158  CE2       23.8500   38.1050  103.7030 C.ar  290  TYR290      0.0417
    159  CZ        23.5230   39.4750  103.8620 C.ar  290  TYR290      0.1957
    160  OH        23.5570   40.3590  102.7940 O.3   290  TYR290     -0.2866
    161  N         27.0910   33.9390  103.6760 N.3   292  ARG292     -0.1245
    162  CA        26.5360   33.2140  102.5430 C.3   292  ARG292      0.1563
    163  C         27.3510   31.9300  102.3710 C.2   292  ARG292      0.2260
    164  O         28.5870   31.9580  102.3470 O.2   292  ARG292     -0.2867
    165  CB        26.5790   34.0750  101.2740 C.3   292  ARG292      0.0307
    166  CG        25.4680   35.1240  101.2290 C.3   292  ARG292      0.0489
    167  CD        25.5620   35.9960   99.9870 C.3   292  ARG292      0.2205
    168  NE        24.4510   36.9370   99.8650 N.pl3 292  ARG292     -0.0865
    169  CZ        23.2010   36.6020   99.5450 C.cat 292  ARG292      0.5346
    170  NH1       22.8820   35.3350   99.3100 N.pl3 292  ARG292      0.1354
    171  NH2       22.2640   37.5400   99.4460 N.pl3 292  ARG292      0.1354
    172  N         21.7430   28.5380   92.7010 N.3   312  GLY312     -0.1225
    173  CA        21.6440   29.9860   92.7560 C.3   312  GLY312      0.1811
    174  C         20.2220   30.4860   92.6080 C.2   312  GLY312      0.2280
    175  O         19.9510   31.6840   92.7300 O.2   312  GLY312     -0.2866
    176  N         16.1780   31.0720   93.3710 N.3   314  ASP314     -0.1239
    177  CA        15.4170   31.4980   94.5290 C.3   314  ASP314      0.1674
    178  C         13.9310   31.3020   94.2330 C.2   314  ASP314      0.2266
    179  O         13.4430   31.6990   93.1680 O.2   314  ASP314     -0.2867
    180  CB        15.6930   32.9700   94.8200 C.3   314  ASP314      0.1410
    181  CG        15.4250   33.3250   96.2510 C.2   314  ASP314      0.3668
    182  OD1       16.3310   33.1150   97.0900 O.co2 314  ASP314     -0.2456
    183  OD2       14.3040   33.7950   96.5370 O.co2 314  ASP314     -0.2456
    184  N         16.8700   26.8790  103.9600 N.3   334  ASP334     -0.1239
    185  CA        17.8740   27.3610  103.0240 C.3   334  ASP334      0.1674
    186  C         19.2510   27.3220  103.6640 C.2   334  ASP334      0.2266
    187  O         19.5140   28.0100  104.6470 O.2   334  ASP334     -0.2867
    188  CB        17.5670   28.7860  102.5590 C.3   334  ASP334      0.1410
    189  CG        18.4100   29.1940  101.3700 C.2   334  ASP334      0.3668
    190  OD1       19.6050   28.8410  101.3440 O.co2 334  ASP334     -0.2456
    191  OD2       17.8900   29.8780  100.4640 O.co2 334  ASP334     -0.2456
    192  N         21.9810   28.3180  102.2290 N.3   336  ARG336     -0.1231
    193  CA        22.8520   29.3060  101.5960 C.3   336  ARG336      0.1694
    194  C         23.1080   30.5940  102.3890 C.2   336  ARG336      0.2591
    195  O         24.0210   31.3540  102.0620 O.2   336  ARG336     -0.2718
    196  CB        22.2980   29.6590  100.2110 C.3   336  ARG336      0.0321
    197  CG        22.1630   28.4650   99.2820 C.3   336  ARG336      0.0489
    198  CD        21.4180   28.8480   98.0160 C.3   336  ARG336      0.2205
    199  NE        20.0740   29.3250   98.3260 N.pl3 336  ARG336     -0.0865
    200  CZ        19.2150   29.7880   97.4260 C.cat 336  ARG336      0.5346
    201  NH1       19.5560   29.8400   96.1500 N.pl3 336  ARG336      0.1354
    202  NH2       18.0120   30.1930   97.8080 N.pl3 336  ARG336      0.1354
    203  N         22.3040   30.8330  103.4190 N.am  337  ILE337     -0.1980
    204  CA        22.4300   32.0270  104.2630 C.3   337  ILE337      0.1595
    205  C         22.3770   31.6160  105.7140 C.2   337  ILE337      0.2287
    206  O         21.5690   30.7710  106.0740 O.2   337  ILE337     -0.2864
    207  CB        21.2500   33.0200  104.0590 C.3   337  ILE337      0.0276
    208  CG1       21.3400   33.6850  102.6910 C.3   337  ILE337      0.0022
    209  CG2       21.2730   34.0980  105.1540 C.3   337  ILE337      0.0022
    210  CD1       22.5930   34.5080  102.5220 C.3   337  ILE337      0.0001
    211  N         25.4440   50.8360  108.3980 N.3   399  MET399     -0.1245
    212  CA        24.1020   50.2930  108.4000 C.3   399  MET399      0.1570
    213  C         24.3090   48.7790  108.3630 C.2   399  MET399      0.2261
    214  O         25.3630   48.3160  107.9380 O.2   399  MET399     -0.2867
    215  CB        23.3450   50.7690  107.1380 C.3   399  MET399      0.0387
    216  CG        22.0720   49.9830  106.7590 C.3   399  MET399      0.0595
    217  SD        22.3660   48.4400  105.7630 S.3   399  MET399     -0.1393
    218  CE        22.3450   49.0510  104.0130 C.3   399  MET399      0.0692
    219  N         22.2570   44.6620  107.9870 N.3   401  TRP401     -0.1241
    220  CA        21.1250   43.7810  107.7960 C.3   401  TRP401      0.1605
    221  C         21.5230   42.4200  108.3990 C.2   401  TRP401      0.2264
    222  O         22.3880   41.7360  107.8550 O.2   401  TRP401     -0.2867
    223  CB        20.8240   43.6240  106.2910 C.3   401  TRP401      0.0550
    224  CG        19.8110   42.5600  105.9970 C.ar  401  TRP401      0.0003
    225  CD1       20.0260   41.1980  105.9480 C.ar  401  TRP401      0.0946
    226  CD2       18.4090   42.7480  105.8270 C.ar  401  TRP401      0.0152
    227  NE1       18.8340   40.5340  105.7650 N.ar  401  TRP401     -0.2442
    228  CE2       17.8250   41.4590  105.6860 C.ar  401  TRP401      0.0810
    229  CE3       17.5790   43.8790  105.7860 C.ar  401  TRP401      0.0012
    230  CZ2       16.4530   41.2760  105.5070 C.ar  401  TRP401      0.0191
    231  CZ3       16.2190   43.6990  105.6130 C.ar  401  TRP401      0.0001
    232  CH2       15.6640   42.4040  105.4740 C.ar  401  TRP401      0.0015
    233  N         20.0270   39.0850  113.5610 N.3   405  GLN405     -0.1245
    234  CA        21.0550   38.0990  113.2530 C.3   405  GLN405      0.1566
    235  C         22.2980   38.1510  114.1520 C.2   405  GLN405      0.2260
    236  O         23.1710   37.2870  114.0500 O.2   405  GLN405     -0.2867
    237  CB        21.4620   38.2350  111.7830 C.3   405  GLN405      0.0367
    238  CG        20.2930   38.0210  110.8490 C.3   405  GLN405      0.0905
    239  CD        20.6580   38.2150  109.4010 C.2   405  GLN405      0.2608
    240  OE1       21.2690   39.2200  109.0270 O.2   405  GLN405     -0.2717
    241  NE2       20.2730   37.2530  108.5640 N.am  405  GLN405     -0.0878
@<TRIPOS>BOND
     1    85    83   ar
     2    85    86   ar
     3    83    81   ar
     4    86    84   ar
     5    79    78    2
     6    81    80    1
     7    81    82   ar
     8    80    77    1
     9    77    78    1
    10    77    76    1
    11    78    87   am
    12    84    82   ar
    13   147   146   ar
    14   129   128    2
    15    87    88    1
    16    90    89    2
    17    62    61    2
    18    88    89    1
    19    88    91    1
    20    95    93   ar
    21    95    97   ar
    22    93    92   ar
    23   142   141    1
    24   142   143    2
    25   146   148   ar
    26   146   145    1
    27   128   127    1
    28   128   140   am
    29    97    96   ar
    30    61    60    1
    31   141   140    1
    32   141   144    1
    33    92    91    1
    34    92    94   ar
    35   130   127    1
    36   130   131    1
    37   127   126    1
    38   145   144    1
    39    96    94   ar
    40   132   131   ar
    41   132   134   ar
    42    63    60    1
    43    63    64    1
    44    59    60    1
    45    59    52   am
    46   131   133   ar
    47    41    39   ar
    48    41    40   ar
    49   134   135   ar
    50   174   175    2
    51   174   173    1
    52    53    52    2
    53   172   173    1
    54    66    64   ar
    55    66    68   ar
    56    52    51    1
    57    39    37   ar
    58    64    65   ar
    59   133   135   ar
    60   133   136   ar
    61   179   178    2
    62   176   177    1
    63    40    38   ar
    64   135   137   ar
    65    68    69   ar
    66   136   138   ar
    67    65    67   ar
    68    37    36   ar
    69    37    35   ar
    70   178   177    1
    71    51    50    1
    72    51    54    1
    73   177   180    1
    74    36    34   ar
    75    38    35   ar
    76   137   139   ar
    77   180   181    1
    78    69    67   ar
    79    69    70    1
    80    35    33   ar
    81    54    55    1
    82   138   139   ar
    83    31    30    2
    84    34    33   ar
    85   201   200    1
    86    33    32    1
    87   181   183   ar
    88   181   182   ar
    89   121   120    2
    90    55    56    1
    91    30    29    1
    92    57    56   ar
    93    29    32    1
    94    29    28    1
    95   120   119    1
    96   200   202    1
    97   200   199    2
    98    27    26    2
    99    56    58   ar
   100   198   199    1
   101   198   197    1
   102    45    44    2
   103    74    73    2
   104    44    43    1
   105   122   119    1
   106   122   123    1
   107   105   104    1
   108    28    26   am
   109    26    25    1
   110   119   118    1
   111   109   108    2
   112   101   100    2
   113    73    72    1
   114   197   196    1
   115   170   169    1
   116   104   103    1
   117   171   169    1
   118    43    42    1
   119    43    46    1
   120    24    25    1
   121   169   168    2
   122   108   118   am
   123   108   107    1
   124   102   103    1
   125   102    99    1
   126   123   125   ar
   127   123   124   ar
   128   168   167    1
   129   100    99    1
   130   167   166    1
   131    98    99    1
   132   196   193    1
   133   106   107    1
   134   191   189   ar
   135    71    72    1
   136    72    75    1
   137    46    47    1
   138   107   110    1
   139   166   165    1
   140   165   162    1
   141   190   189   ar
   142   189   188    1
   143   193   192    1
   144   193   194    1
   145    47    48   ar
   146    47    49   ar
   147   195   194    2
   148   112   114   ar
   149   112   111   ar
   150   110   111    1
   151   164   163    2
   152   163   162    1
   153   194   203   am
   154   114   116   ar
   155   210   208    1
   156   162   161    1
   157   188   185    1
   158   111   113   ar
   159   208   207    1
   160   160   159    1
   161   185   186    1
   162   185   184    1
   163    21    23   ar
   164    21    19   ar
   165    23    22   ar
   166   116   117    1
   167   116   115   ar
   168    19    18   ar
   169   203   204    1
   170    22    20   ar
   171   113   115   ar
   172    18    20   ar
   173    18    17    1
   174   186   187    2
   175   158   159   ar
   176   158   156   ar
   177    17    14    1
   178   159   157   ar
   179   218   217    1
   180   207   204    1
   181   207   209    1
   182    12    11    1
   183   204   205    1
   184   156   154   ar
   185    15    14    1
   186    15    16    2
   187   157   155   ar
   188    14    13    1
   189    11    10   ar
   190    11     9   ar
   191   232   230   ar
   192   232   231   ar
   193   230   228   ar
   194    10     8   ar
   195   231   229   ar
   196   228   227   ar
   197   228   226   ar
   198   205   206    2
   199   217   216    1
   200   227   225   ar
   201   229   226   ar
   202   226   224   ar
   203   225   224   ar
   204   224   223    1
   205     9     7   ar
   206   154   155   ar
   207   154   153    1
   208   223   220    1
   209   152   151    2
   210     8     6   ar
   211   216   215    1
   212     7     6   ar
   213   151   150    1
   214   215   212    1
   215   153   150    1
   216     6     5    1
   217   220   219    1
   218   220   221    1
   219   222   221    2
   220   214   213    2
   221   150   149    1
   222   213   212    1
   223   211   212    1
   224   241   239   am
   225     5     2    1
   226   240   239    2
   227   239   238    1
   228     2     1    1
   229     2     3    1
   230   238   237    1
   231     3     4    2
   232   237   234    1
   233   234   233    1
   234   234   235    1
   235   236   235    2
