@<TRIPOS>MOLECULE
tmp/1h0iA00.pdb
 259 256 0 0 0
SMALL
GASTEIGER

@<TRIPOS>ATOM
      1  N         19.1760   48.0360  111.0740 N.3     8  TYR8       -0.1241
      2  CA        17.8860   47.6090  110.5590 C.3     8  TYR8        0.1605
      3  C         17.4480   46.5370  111.5460 C.2     8  TYR8        0.2264
      4  O         18.2740   45.7730  112.0540 O.2     8  TYR8       -0.2867
      5  CB        17.9820   46.9920  109.1460 C.3     8  TYR8        0.0534
      6  CG        17.9910   48.0120  108.0180 C.ar    8  TYR8       -0.0201
      7  CD1       19.1880   48.5520  107.5430 C.ar    8  TYR8       -0.0009
      8  CD2       16.7950   48.5060  107.4880 C.ar    8  TYR8       -0.0009
      9  CE1       19.1990   49.5710  106.5710 C.ar    8  TYR8        0.0417
     10  CE2       16.7890   49.5330  106.5140 C.ar    8  TYR8        0.0417
     11  CZ        17.9940   50.0640  106.0620 C.ar    8  TYR8        0.1957
     12  OH        18.0000   51.1060  105.1380 O.3     8  TYR8       -0.2866
     13  N         14.6960   43.6370  111.5830 N.3    10  PHE10      -0.1241
     14  CA        13.7310   42.9330  110.7700 C.3    10  PHE10       0.1605
     15  C         13.0810   41.8220  111.5620 C.2    10  PHE10       0.2264
     16  O         13.7580   41.0310  112.2130 O.2    10  PHE10      -0.2867
     17  CB        14.4150   42.3310  109.5350 C.3    10  PHE10       0.0534
     18  CG        13.5010   41.4820  108.6960 C.ar   10  PHE10      -0.0203
     19  CD1       12.4880   42.0660  107.9400 C.ar   10  PHE10      -0.0042
     20  CD2       13.6100   40.0920  108.7160 C.ar   10  PHE10      -0.0042
     21  CE1       11.5900   41.2840  107.2170 C.ar   10  PHE10      -0.0003
     22  CE2       12.7160   39.2950  107.9970 C.ar   10  PHE10      -0.0003
     23  CZ        11.7000   39.8940  107.2450 C.ar   10  PHE10      -0.0000
     24  N          9.7290   45.3070  107.5650 N.3    49  PHE49      -0.1241
     25  CA         9.5810   46.3100  106.5130 C.3    49  PHE49       0.1605
     26  C          8.1080   46.6350  106.3840 C.2    49  PHE49       0.2264
     27  O          7.2560   45.8130  106.7290 O.2    49  PHE49      -0.2867
     28  CB         9.9750   45.7530  105.1450 C.3    49  PHE49       0.0534
     29  CG        11.4520   45.6200  104.9180 C.ar   49  PHE49      -0.0203
     30  CD1       12.2460   46.7480  104.7300 C.ar   49  PHE49      -0.0042
     31  CD2       12.0420   44.3590  104.8450 C.ar   49  PHE49      -0.0042
     32  CE1       13.6090   46.6170  104.4710 C.ar   49  PHE49      -0.0003
     33  CE2       13.4050   44.2190  104.5860 C.ar   49  PHE49      -0.0003
     34  CZ        14.1860   45.3450  104.4000 C.ar   49  PHE49      -0.0000
     35  N         13.8340   43.5920   99.5750 N.3    95  TRP95      -0.1227
     36  CA        13.8690   42.7940   98.3620 C.3    95  TRP95       0.1737
     37  C         12.5440   42.0690   98.0960 C.2    95  TRP95       0.2595
     38  O         12.0050   42.1390   96.9970 O.2    95  TRP95      -0.2718
     39  CB        15.0070   41.7730   98.4260 C.3    95  TRP95       0.0564
     40  CG        15.0940   40.9510   97.1800 C.ar   95  TRP95       0.0003
     41  CD1       14.5790   39.7010   96.9830 C.ar   95  TRP95       0.0946
     42  CD2       15.7120   41.3330   95.9430 C.ar   95  TRP95       0.0152
     43  NE1       14.8440   39.2790   95.7010 N.ar   95  TRP95      -0.2442
     44  CE2       15.5380   40.2610   95.0420 C.ar   95  TRP95       0.0810
     45  CE3       16.4000   42.4760   95.5120 C.ar   95  TRP95       0.0012
     46  CZ2       16.0220   40.2970   93.7320 C.ar   95  TRP95       0.0191
     47  CZ3       16.8830   42.5130   94.2150 C.ar   95  TRP95       0.0001
     48  CH2       16.6920   41.4230   93.3370 C.ar   95  TRP95       0.0015
     49  N         12.0160   41.3790   99.1000 N.am   96  TYR96      -0.1976
     50  CA        10.7710   40.6450   98.9090 C.3    96  TYR96       0.1639
     51  C          9.6540   41.4620   98.2640 C.2    96  TYR96       0.2290
     52  O          9.0600   41.0390   97.2710 O.2    96  TYR96      -0.2864
     53  CB        10.2770   40.0850  100.2380 C.3    96  TYR96       0.0560
     54  CG         9.0490   39.2200  100.0940 C.ar   96  TYR96      -0.0198
     55  CD1        9.0590   38.0990   99.2640 C.ar   96  TYR96      -0.0009
     56  CD2        7.8720   39.5290  100.7730 C.ar   96  TYR96      -0.0009
     57  CE1        7.9220   37.3060   99.1080 C.ar   96  TYR96       0.0417
     58  CE2        6.7270   38.7450  100.6270 C.ar   96  TYR96       0.0417
     59  CZ         6.7590   37.6350   99.7910 C.ar   96  TYR96       0.1957
     60  OH         5.6240   36.8660   99.6300 O.3    96  TYR96      -0.2866
     61  N         11.6010   44.1600   94.7410 N.3    99  ASN99      -0.1240
     62  CA        12.4400   43.7830   93.6060 C.3    99  ASN99       0.1653
     63  C         11.5730   43.7170   92.3470 C.2    99  ASN99       0.2266
     64  O         10.3460   43.6250   92.4350 O.2    99  ASN99      -0.2867
     65  CB        13.1490   42.4510   93.8760 C.3    99  ASN99       0.1155
     66  CG        12.2900   41.2460   93.5530 C.2    99  ASN99       0.2627
     67  OD1       12.1170   40.9010   92.3900 O.2    99  ASN99      -0.2716
     68  ND2       11.7590   40.5970   94.5810 N.am   99  ASN99      -0.0877
     69  N         10.5640   41.5890   90.3830 N.3   101  LEU101     -0.1245
     70  CA         9.5670   40.5270   90.3240 C.3   101  LEU101      0.1561
     71  C          8.9710   40.2970   91.7010 C.2   101  LEU101      0.2260
     72  O          8.4560   39.2120   91.9790 O.2   101  LEU101     -0.2867
     73  CB        10.2050   39.2220   89.8490 C.3   101  LEU101      0.0270
     74  CG        11.2300   39.3420   88.7230 C.3   101  LEU101      0.0019
     75  CD1       11.7570   37.9560   88.3920 C.3   101  LEU101      0.0001
     76  CD2       10.6020   39.9860   87.4990 C.3   101  LEU101      0.0001
     77  N         13.5150   51.6990  100.9420 N.3   140  ASP140     -0.1239
     78  CA        14.4130   50.6390  100.4900 C.3   140  ASP140      0.1674
     79  C         13.8220   49.9130   99.2740 C.2   140  ASP140      0.2266
     80  O         13.4550   48.7310   99.3450 O.2   140  ASP140     -0.2867
     81  CB        14.6620   49.6560  101.6390 C.3   140  ASP140      0.1410
     82  CG        15.4930   48.4420  101.2210 C.2   140  ASP140      0.3668
     83  OD1       16.2240   48.5180  100.2010 O.co2 140  ASP140     -0.2456
     84  OD2       15.4140   47.4110  101.9370 O.co2 140  ASP140     -0.2456
     85  N         14.4100   48.2200   95.9860 N.3   142  GLU142     -0.1231
     86  CA        15.5120   47.5570   95.3160 C.3   142  GLU142      0.1699
     87  C         15.1040   46.9900   93.9500 C.2   142  GLU142      0.2592
     88  O         14.7470   45.8170   93.8610 O.2   142  GLU142     -0.2718
     89  CB        16.0300   46.4370   96.2260 C.3   142  GLU142      0.0402
     90  CG        16.6020   46.9360   97.5590 C.3   142  GLU142      0.1161
     91  CD        16.9490   45.8170   98.5200 C.2   142  GLU142      0.3649
     92  OE1       17.2500   44.6950   98.0410 O.co2 142  GLU142     -0.2457
     93  OE2       16.9370   46.0610   99.7520 O.co2 142  GLU142     -0.2457
     94  N         15.1640   47.7890   92.8820 N.am  143  TYR143     -0.1976
     95  CA        15.5620   49.1950   92.8930 C.3   143  TYR143      0.1639
     96  C         14.7610   49.8820   91.7930 C.2   143  TYR143      0.2290
     97  O         14.2130   49.2140   90.9100 O.2   143  TYR143     -0.2864
     98  CB        17.0430   49.3540   92.5280 C.3   143  TYR143      0.0560
     99  CG        18.0040   48.7220   93.5030 C.ar  143  TYR143     -0.0198
    100  CD1       18.6100   49.4820   94.5060 C.ar  143  TYR143     -0.0009
    101  CD2       18.2890   47.3590   93.4400 C.ar  143  TYR143     -0.0009
    102  CE1       19.4800   48.9000   95.4220 C.ar  143  TYR143      0.0417
    103  CE2       19.1470   46.7650   94.3510 C.ar  143  TYR143      0.0417
    104  CZ        19.7400   47.5400   95.3370 C.ar  143  TYR143      0.1957
    105  OH        20.5870   46.9460   96.2320 O.3   143  TYR143     -0.2866
    106  N         17.9410   53.1180  101.4050 N.3   182  ALA182     -0.1245
    107  CA        18.9830   52.1050  101.3990 C.3   182  ALA182      0.1562
    108  C         19.3760   52.2050   99.9290 C.2   182  ALA182      0.2260
    109  O         18.5260   52.0230   99.0460 O.2   182  ALA182     -0.2867
    110  CB        18.4000   50.7130  101.6980 C.3   182  ALA182      0.0290
    111  N         23.5240   47.4920   90.1640 N.3   189  PHE189     -0.1241
    112  CA        22.2480   48.0610   90.5650 C.3   189  PHE189      0.1605
    113  C         22.3520   49.5860   90.6800 C.2   189  PHE189      0.2264
    114  O         21.3810   50.3090   90.4520 O.2   189  PHE189     -0.2867
    115  CB        21.8010   47.4690   91.8910 C.3   189  PHE189      0.0534
    116  CG        21.2070   46.0950   91.7730 C.ar  189  PHE189     -0.0203
    117  CD1       20.1270   45.8640   90.9310 C.ar  189  PHE189     -0.0042
    118  CD2       21.6780   45.0510   92.5600 C.ar  189  PHE189     -0.0042
    119  CE1       19.5140   44.6050   90.8830 C.ar  189  PHE189     -0.0003
    120  CE2       21.0710   43.7890   92.5170 C.ar  189  PHE189     -0.0003
    121  CZ        19.9900   43.5710   91.6810 C.ar  189  PHE189     -0.0000
    122  N         24.2380   49.7090  100.6480 N.3   210  MET210     -0.1245
    123  CA        24.1980   48.3010  101.0130 C.3   210  MET210      0.1570
    124  C         25.4800   47.6720  100.5020 C.2   210  MET210      0.2261
    125  O         25.4950   46.8960   99.5440 O.2   210  MET210     -0.2867
    126  CB        22.9540   47.6470  100.4090 C.3   210  MET210      0.0387
    127  CG        21.6700   48.1930  101.0530 C.3   210  MET210      0.0595
    128  SD        20.1390   47.4160  100.4300 S.3   210  MET210     -0.1393
    129  CE        19.9190   48.3100   98.9270 C.3   210  MET210      0.0692
    130  N         27.2850   45.2130  100.8460 N.3   212  TYR212     -0.1227
    131  CA        27.3870   43.8000  101.1850 C.3   212  TYR212      0.1736
    132  C         26.6890   42.9910  100.0680 C.2   212  TYR212      0.2595
    133  O         26.1930   43.5690   99.0990 O.2   212  TYR212     -0.2718
    134  CB        26.8120   43.4820  102.5820 C.3   212  TYR212      0.0548
    135  CG        25.5440   44.2100  102.9670 C.ar  212  TYR212     -0.0200
    136  CD1       24.3030   43.8260  102.4540 C.ar  212  TYR212     -0.0009
    137  CD2       25.5920   45.3000  103.8370 C.ar  212  TYR212     -0.0009
    138  CE1       23.1280   44.5230  102.8020 C.ar  212  TYR212      0.0417
    139  CE2       24.4280   46.0070  104.1950 C.ar  212  TYR212      0.0417
    140  CZ        23.2070   45.6170  103.6790 C.ar  212  TYR212      0.1957
    141  OH        22.0690   46.3100  104.0470 O.3   212  TYR212     -0.2866
    142  N         26.6690   41.6680  100.1800 N.am  213  ASP213     -0.1974
    143  CA        26.0930   40.8420   99.1100 C.3   213  ASP213      0.1709
    144  C         26.8510   41.0750   97.7970 C.2   213  ASP213      0.2293
    145  O         26.2800   40.9480   96.7230 O.2   213  ASP213     -0.2864
    146  CB        24.6140   41.1670   98.8780 C.3   213  ASP213      0.1436
    147  CG        23.7370   40.7170  100.0140 C.2   213  ASP213      0.3671
    148  OD1       24.1830   39.8330  100.7790 O.co2 213  ASP213     -0.2456
    149  OD2       22.5970   41.2370  100.1320 O.co2 213  ASP213     -0.2456
    150  N         25.4740   32.8490   93.5390 N.3   218  TRP218     -0.1241
    151  CA        25.0210   33.2040   92.1990 C.3   218  TRP218      0.1605
    152  C         26.1980   33.5780   91.2910 C.2   218  TRP218      0.2264
    153  O         26.0320   33.7310   90.0780 O.2   218  TRP218     -0.2867
    154  CB        24.0200   34.3610   92.2700 C.3   218  TRP218      0.0550
    155  CG        24.5530   35.5940   92.9330 C.ar  218  TRP218      0.0003
    156  CD1       25.3020   36.5780   92.3560 C.ar  218  TRP218      0.0946
    157  CD2       24.4060   35.9570   94.3110 C.ar  218  TRP218      0.0152
    158  NE1       25.6310   37.5320   93.2900 N.ar  218  TRP218     -0.2442
    159  CE2       25.0960   37.1740   94.5000 C.ar  218  TRP218      0.0810
    160  CE3       23.7600   35.3690   95.4070 C.ar  218  TRP218      0.0012
    161  CZ2       25.1580   37.8200   95.7460 C.ar  218  TRP218      0.0191
    162  CZ3       23.8210   36.0120   96.6460 C.ar  218  TRP218      0.0001
    163  CH2       24.5170   37.2240   96.8010 C.ar  218  TRP218      0.0015
    164  N         25.8080   39.0350  108.9610 N.3   290  TYR290     -0.1241
    165  CA        25.6050   37.6480  108.5150 C.3   290  TYR290      0.1605
    166  C         26.6530   37.2820  107.4670 C.2   290  TYR290      0.2264
    167  O         27.3050   38.1510  106.8820 O.2   290  TYR290     -0.2867
    168  CB        24.2100   37.4850  107.8660 C.3   290  TYR290      0.0534
    169  CG        24.0530   38.3380  106.6160 C.ar  290  TYR290     -0.0201
    170  CD1       23.7460   39.7030  106.7120 C.ar  290  TYR290     -0.0009
    171  CD2       24.3460   37.8240  105.3540 C.ar  290  TYR290     -0.0009
    172  CE1       23.7490   40.5310  105.5800 C.ar  290  TYR290      0.0417
    173  CE2       24.3570   38.6450  104.2180 C.ar  290  TYR290      0.0417
    174  CZ        24.0620   40.0010  104.3400 C.ar  290  TYR290      0.1957
    175  OH        24.1200   40.8310  103.2260 O.3   290  TYR290     -0.2866
    176  N         27.7080   34.5210  104.0070 N.3   292  ARG292     -0.1245
    177  CA        27.1910   33.7120  102.9090 C.3   292  ARG292      0.1563
    178  C         28.1310   32.5190  102.7310 C.2   292  ARG292      0.2260
    179  O         29.3540   32.6740  102.7580 O.2   292  ARG292     -0.2867
    180  CB        27.0990   34.5430  101.6240 C.3   292  ARG292      0.0307
    181  CG        25.9530   35.5450  101.6610 C.3   292  ARG292      0.0489
    182  CD        25.7990   36.3170  100.3570 C.3   292  ARG292      0.2205
    183  NE        24.6610   37.2360  100.4090 N.pl3 292  ARG292     -0.0865
    184  CZ        23.3890   36.8540  100.4720 C.cat 292  ARG292      0.5346
    185  NH1       23.0710   35.5590  100.4870 N.pl3 292  ARG292      0.1354
    186  NH2       22.4310   37.7690  100.5300 N.pl3 292  ARG292      0.1354
    187  N         17.2600   30.3340   93.9640 N.3   314  ASP314     -0.1282
    188  CA        16.5230   30.8190   95.1230 C.3   314  ASP314      0.1465
    189  C         15.1480   30.1760   95.0490 C.3   314  ASP314      0.2044
    190  O         14.4570   30.2710   94.0370 O.3   314  ASP314     -0.2060
    191  CB        16.4410   32.3410   95.0950 C.3   314  ASP314      0.1370
    192  CG        17.8150   32.9740   94.9550 C.2   314  ASP314      0.3665
    193  OD1       18.6800   32.6600   95.8050 O.co2 314  ASP314     -0.2456
    194  OD2       18.0400   33.7460   94.0020 O.co2 314  ASP314     -0.2456
    195  N         14.7810   29.4350   96.1060 N.3   315  PRO315     -0.2412
    196  CA        14.2820   28.6100   97.1980 C.3   315  PRO315      0.1249
    197  C         15.1270   27.3520   97.2490 C.2   315  PRO315      0.2231
    198  O         14.7360   26.2930   96.7500 O.2   315  PRO315     -0.2868
    199  CB        12.8390   28.3690   96.7890 C.3   315  PRO315      0.0256
    200  CG        12.4620   29.7180   96.1680 C.3   315  PRO315      0.0219
    201  CD        13.7680   30.4950   95.9990 C.3   315  PRO315      0.1037
    202  N         15.5980   27.8570  109.0340 N.3   332  ASP332     -0.1225
    203  CA        15.1960   28.7170  107.9200 C.3   332  ASP332      0.1805
    204  C         15.2830   28.1020  106.5210 C.2   332  ASP332      0.2598
    205  O         15.0390   28.7790  105.5190 O.2   332  ASP332     -0.2718
    206  CB        15.9880   30.0250  107.9650 C.3   332  ASP332      0.1424
    207  CG        15.8630   30.7250  109.3010 C.2   332  ASP332      0.3668
    208  OD1       14.7480   30.7290  109.8640 O.co2 332  ASP332     -0.2456
    209  OD2       16.8730   31.2730  109.7890 O.co2 332  ASP332     -0.2456
    210  N         15.6410   26.8250  106.4560 N.am  333  LYS333     -0.1966
    211  CA        15.7150   26.1110  105.1870 C.3   333  LYS333      0.1728
    212  C         16.6830   26.6850  104.1520 C.2   333  LYS333      0.2616
    213  O         16.3430   26.7590  102.9720 O.2   333  LYS333     -0.2715
    214  CB        14.3180   26.0370  104.5600 C.3   333  LYS333      0.0311
    215  CG        13.2240   25.5030  105.4780 C.3   333  LYS333      0.0038
    216  CD        13.3800   24.0170  105.7540 C.3   333  LYS333      0.0206
    217  CE        12.1890   23.4740  106.5310 C.3   333  LYS333      0.1093
    218  NZ        12.2360   21.9870  106.6570 N.3   333  LYS333     -0.1314
    219  N         17.8780   27.0930  104.5710 N.am  334  ASP334     -0.1971
    220  CA        18.8520   27.6160  103.6170 C.3   334  ASP334      0.1709
    221  C         20.2530   27.6470  104.2000 C.2   334  ASP334      0.2293
    222  O         20.5650   28.4710  105.0560 O.2   334  ASP334     -0.2864
    223  CB        18.4730   29.0200  103.1510 C.3   334  ASP334      0.1436
    224  CG        19.1480   29.3930  101.8430 C.2   334  ASP334      0.3671
    225  OD1       20.3280   29.0170  101.6460 O.co2 334  ASP334     -0.2456
    226  OD2       18.5020   30.0650  101.0120 O.co2 334  ASP334     -0.2456
    227  N         22.9500   28.5630  102.7470 N.3   336  ARG336     -0.1231
    228  CA        23.8210   29.5340  102.0800 C.3   336  ARG336      0.1694
    229  C         23.9590   30.8520  102.8520 C.2   336  ARG336      0.2591
    230  O         24.6670   31.7710  102.4230 O.2   336  ARG336     -0.2718
    231  CB        23.2990   29.8120  100.6650 C.3   336  ARG336      0.0321
    232  CG        23.2410   28.5740   99.7780 C.3   336  ARG336      0.0489
    233  CD        22.4490   28.8380   98.5100 C.3   336  ARG336      0.2205
    234  NE        21.0730   29.2130   98.8130 N.pl3 336  ARG336     -0.0865
    235  CZ        20.1570   29.4930   97.8930 C.cat 336  ARG336      0.5346
    236  NH1       20.4750   29.4390   96.6040 N.pl3 336  ARG336      0.1354
    237  NH2       18.9270   29.8340   98.2590 N.pl3 336  ARG336      0.1354
    238  N         23.2930   30.9350  103.9960 N.am  337  ILE337     -0.1980
    239  CA        23.3440   32.1440  104.7930 C.3   337  ILE337      0.1595
    240  C         23.1810   31.8540  106.2760 C.2   337  ILE337      0.2287
    241  O         22.3630   31.0150  106.6650 O.2   337  ILE337     -0.2864
    242  CB        22.2490   33.1330  104.3330 C.3   337  ILE337      0.0276
    243  CG1       22.4290   34.4780  105.0260 C.3   337  ILE337      0.0022
    244  CG2       20.8690   32.5620  104.6340 C.3   337  ILE337      0.0022
    245  CD1       21.6210   35.5900  104.3730 C.3   337  ILE337      0.0001
    246  N         22.7540   45.2640  108.4330 N.3   401  TRP401     -0.1241
    247  CA        21.6720   44.3140  108.2490 C.3   401  TRP401      0.1605
    248  C         22.1260   42.9730  108.8520 C.2   401  TRP401      0.2264
    249  O         23.0010   42.3060  108.2900 O.2   401  TRP401     -0.2867
    250  CB        21.3700   44.1270  106.7670 C.3   401  TRP401      0.0550
    251  CG        20.2570   43.1660  106.5420 C.ar  401  TRP401      0.0003
    252  CD1       20.3540   41.8020  106.4310 C.ar  401  TRP401      0.0946
    253  CD2       18.8570   43.4660  106.5670 C.ar  401  TRP401      0.0152
    254  NE1       19.0970   41.2370  106.4020 N.ar  401  TRP401     -0.2442
    255  CE2       18.1620   42.2370  106.4810 C.ar  401  TRP401      0.0810
    256  CE3       18.1230   44.6530  106.6620 C.ar  401  TRP401      0.0012
    257  CZ2       16.7640   42.1670  106.4920 C.ar  401  TRP401      0.0191
    258  CZ3       16.7360   44.5870  106.6740 C.ar  401  TRP401      0.0001
    259  CH2       16.0700   43.3530  106.5880 C.ar  401  TRP401      0.0015
@<TRIPOS>BOND
     1    76    74    1
     2    75    74    1
     3    74    73    1
     4    73    70    1
     5   153   152    2
     6   111   112    1
     7    70    69    1
     8    70    71    1
     9   114   113    2
    10   112   113    1
    11   112   115    1
    12   119   117   ar
    13   119   121   ar
    14    97    96    2
    15   117   116   ar
    16   152   151    1
    17   121   120   ar
    18    71    72    2
    19   116   115    1
    20   116   118   ar
    21    96    95    1
    22   151   154    1
    23   151   150    1
    24   154   155    1
    25    63    64    2
    26    63    62    1
    27   156   155   ar
    28   156   158   ar
    29    67    66    2
    30   120   118   ar
    31    98    95    1
    32    98    99    1
    33    94    95    1
    34    94    87   am
    35   155   157   ar
    36   158   159   ar
    37    48    46   ar
    38    48    47   ar
    39   101    99   ar
    40   101   103   ar
    41    99   100   ar
    42    66    65    1
    43    66    68   am
    44    62    65    1
    45    62    61    1
    46    46    44   ar
    47    88    87    2
    48    87    86    1
    49   187   188    1
    50   194   192   ar
    51   190   189    1
    52    47    45   ar
    53   157   159   ar
    54   157   160   ar
    55   103   104   ar
    56   159   161   ar
    57   100   102   ar
    58   192   191    1
    59   192   193   ar
    60    44    43   ar
    61    44    42   ar
    62   189   188    1
    63   189   201    1
    64   189   195    1
    65   191   188    1
    66    86    85    1
    67    86    89    1
    68   104   102   ar
    69   104   105    1
    70   160   162   ar
    71    45    42   ar
    72    43    41   ar
    73   161   163   ar
    74    42    40   ar
    75   201   195    1
    76   201   200    1
    77   195   196    1
    78   200   199    1
    79    89    90    1
    80   236   235    1
    81   162   163   ar
    82   145   144    2
    83   198   197    2
    84   199   196    1
    85    41    40   ar
    86    38    37    2
    87    40    39    1
    88   196   197    1
    89    52    51    2
    90    90    91    1
    91   144   143    1
    92   235   237    1
    93   235   234    2
    94    92    91   ar
    95    37    36    1
    96    37    49   am
    97    51    50    1
    98    36    39    1
    99    36    35    1
   100   233   234    1
   101   233   232    1
   102    91    93   ar
   103   146   143    1
   104   146   147    1
   105    50    49    1
   106    50    53    1
   107   129   128    1
   108   109   108    2
   109   133   132    2
   110    57    55   ar
   111    57    59   ar
   112   143   142    1
   113    55    54   ar
   114    79    80    2
   115    79    78    1
   116   125   124    2
   117    60    59    1
   118   232   231    1
   119    59    58   ar
   120   108   107    1
   121   147   149   ar
   122   147   148   ar
   123   132   142   am
   124   132   131    1
   125    54    53    1
   126    54    56   ar
   127    83    82   ar
   128   182   183    1
   129   182   181    1
   130   183   184    2
   131   126   123    1
   132   126   127    1
   133   128   127    1
   134   184   185    1
   135   184   186    1
   136    78    77    1
   137    78    81    1
   138   124   123    1
   139    58    56   ar
   140   122   123    1
   141   231   228    1
   142   130   131    1
   143   226   224   ar
   144   131   134    1
   145    82    81    1
   146    82    84   ar
   147   107   106    1
   148   107   110    1
   149   180   181    1
   150   180   177    1
   151   225   224   ar
   152   224   223    1
   153   228   227    1
   154   228   229    1
   155   230   229    2
   156   136   138   ar
   157   136   135   ar
   158   134   135    1
   159   178   179    2
   160   178   177    1
   161   138   140   ar
   162   229   238   am
   163   177   176    1
   164   135   137   ar
   165   213   212    2
   166   223   220    1
   167   175   174    1
   168   220   221    1
   169   220   219    1
   170   140   141    1
   171   140   139   ar
   172   137   139   ar
   173   238   239    1
   174   212   219   am
   175   212   211    1
   176   221   222    2
   177   173   174   ar
   178   173   171   ar
   179   242   244    1
   180   242   239    1
   181   242   243    1
   182   174   172   ar
   183   245   243    1
   184    34    32   ar
   185    34    33   ar
   186    32    30   ar
   187   214   211    1
   188   214   215    1
   189    33    31   ar
   190    30    29   ar
   191   239   240    1
   192    31    29   ar
   193    29    28    1
   194    12    11    1
   195    28    25    1
   196   211   210    1
   197   171   169   ar
   198   215   216    1
   199   205   204    2
   200   172   170   ar
   201   216   217    1
   202    11    10   ar
   203    11     9   ar
   204   240   241    2
   205    26    25    1
   206    26    27    2
   207   254   252   ar
   208   254   255   ar
   209   252   251   ar
   210   210   204   am
   211   255   257   ar
   212   255   253   ar
   213   257   259   ar
   214    25    24    1
   215    10     8   ar
   216   204   203    1
   217   217   218    1
   218   251   253   ar
   219   251   250    1
   220   253   256   ar
   221     9     7   ar
   222   259   258   ar
   223   169   170   ar
   224   169   168    1
   225   256   258   ar
   226   250   247    1
   227   167   166    2
   228    21    23   ar
   229    21    19   ar
   230    23    22   ar
   231   166   165    1
   232     8     6   ar
   233     7     6   ar
   234   168   165    1
   235   203   206    1
   236   203   202    1
   237    19    18   ar
   238   206   207    1
   239    22    20   ar
   240     6     5    1
   241   247   246    1
   242   247   248    1
   243   249   248    2
   244   165   164    1
   245    18    20   ar
   246    18    17    1
   247     5     2    1
   248   207   209   ar
   249   207   208   ar
   250    17    14    1
   251     2     1    1
   252     2     3    1
   253    14    15    1
   254    14    13    1
   255     3     4    2
   256    15    16    2
