@<TRIPOS>MOLECULE
tmp/1h0mB01.pdb
 150 144 0 0 0
SMALL
GASTEIGER

@<TRIPOS>ATOM
      1  N         60.9260   19.0820   95.8380 N.3    37  ALA37      -0.1245
      2  CA        60.1350   20.1720   95.2900 C.3    37  ALA37       0.1562
      3  C         59.4970   21.0230   96.3770 C.2    37  ALA37       0.2260
      4  O         58.8950   20.4970   97.3210 O.2    37  ALA37      -0.2867
      5  CB        59.0710   19.6190   94.3670 C.3    37  ALA37       0.0290
      6  N         56.8560   24.1820   96.8290 N.3    39  LEU39      -0.1245
      7  CA        55.8490   25.0050   96.1920 C.3    39  LEU39       0.1561
      8  C         55.2400   25.9670   97.1730 C.2    39  LEU39       0.2260
      9  O         54.9900   25.6010   98.3200 O.2    39  LEU39      -0.2867
     10  CB        54.7400   24.1280   95.6300 C.3    39  LEU39       0.0270
     11  CG        54.9850   23.5100   94.2680 C.3    39  LEU39       0.0019
     12  CD1       53.7320   22.7990   93.8310 C.3    39  LEU39       0.0001
     13  CD2       55.3630   24.6220   93.2860 C.3    39  LEU39       0.0001
     14  N         57.8620   28.0470   92.4690 N.3    48  ALA48      -0.1245
     15  CA        58.5520   26.8170   92.7790 C.3    48  ALA48       0.1562
     16  C         60.0600   26.9460   92.8580 C.2    48  ALA48       0.2260
     17  O         60.6730   27.8570   92.2890 O.2    48  ALA48      -0.2867
     18  CB        58.1800   25.7720   91.7680 C.3    48  ALA48       0.0290
     19  N         62.7860   23.9840   92.5280 N.3    50  THR50      -0.1218
     20  CA        63.0170   22.5640   92.3620 C.3    50  THR50       0.1862
     21  C         64.2930   22.0770   91.7670 C.2    50  THR50       0.2287
     22  O         65.0110   22.7530   91.0400 O.2    50  THR50      -0.2866
     23  CB        61.9630   21.8810   91.5170 C.3    50  THR50       0.1770
     24  OG1       60.9560   22.8240   91.1660 O.3    50  THR50      -0.2211
     25  CG2       61.3780   20.6970   92.2570 C.3    50  THR50       0.0375
     26  N         63.6760   19.0600   90.4960 N.3    52  TYR52      -0.1241
     27  CA        62.9780   18.3390   89.4490 C.3    52  TYR52       0.1605
     28  C         63.5370   18.6490   88.0780 C.2    52  TYR52       0.2264
     29  O         64.0530   19.7540   87.8290 O.2    52  TYR52      -0.2867
     30  CB        61.4900   18.6800   89.4870 C.3    52  TYR52       0.0534
     31  CG        60.6970   17.8970   90.5070 C.ar   52  TYR52      -0.0201
     32  CD1       61.3400   17.2070   91.5460 C.ar   52  TYR52      -0.0009
     33  CD2       59.3020   17.8670   90.4510 C.ar   52  TYR52      -0.0009
     34  CE1       60.6100   16.5090   92.5020 C.ar   52  TYR52       0.0417
     35  CE2       58.5680   17.1780   91.4040 C.ar   52  TYR52       0.0417
     36  CZ        59.2180   16.5050   92.4300 C.ar   52  TYR52       0.1957
     37  OH        58.4880   15.8870   93.4120 O.3    52  TYR52      -0.2866
     38  N         60.1800   18.6140   83.1420 N.3    56  TRP56      -0.1227
     39  CA        58.9790   18.4780   83.9560 C.3    56  TRP56       0.1737
     40  C         58.5620   19.8690   84.3900 C.2    56  TRP56       0.2595
     41  O         57.4120   20.2590   84.2280 O.2    56  TRP56      -0.2718
     42  CB        59.2520   17.6430   85.1860 C.3    56  TRP56       0.0564
     43  CG        58.0180   17.1920   85.8510 C.ar   56  TRP56       0.0003
     44  CD1       57.8320   17.0190   87.1850 C.ar   56  TRP56       0.0946
     45  CD2       56.8160   16.7370   85.2160 C.ar   56  TRP56       0.0152
     46  NE1       56.5910   16.4740   87.4310 N.ar   56  TRP56      -0.2442
     47  CE2       55.9440   16.2920   86.2400 C.ar   56  TRP56       0.0810
     48  CE3       56.3890   16.6590   83.8800 C.ar   56  TRP56       0.0012
     49  CZ2       54.6760   15.7730   85.9760 C.ar   56  TRP56       0.0191
     50  CZ3       55.1260   16.1430   83.6130 C.ar   56  TRP56       0.0001
     51  CH2       54.2840   15.7060   84.6610 C.ar   56  TRP56       0.0015
     52  N         59.5180   20.6180   84.9330 N.am   57  GLN57      -0.1979
     53  CA        59.2570   21.9720   85.3750 C.3    57  GLN57       0.1601
     54  C         58.5100   22.7000   84.2900 C.2    57  GLN57       0.2287
     55  O         57.2950   22.8420   84.3710 O.2    57  GLN57      -0.2864
     56  CB        60.5580   22.6990   85.6930 C.3    57  GLN57       0.0394
     57  CG        61.1340   22.3340   87.0480 C.3    57  GLN57       0.0908
     58  CD        62.4060   23.0870   87.3670 C.2    57  GLN57       0.2608
     59  OE1       62.5170   24.2790   87.0940 O.2    57  GLN57      -0.2717
     60  NE2       63.3720   22.3950   87.9600 N.am   57  GLN57      -0.0878
     61  N         54.9920   21.1980   83.3560 N.3    60  TYR60      -0.1227
     62  CA        54.0800   21.2530   84.5120 C.3    60  TYR60       0.1736
     63  C         53.2680   22.5340   84.5940 C.2    60  TYR60       0.2595
     64  O         52.0930   22.5060   84.9650 O.2    60  TYR60      -0.2718
     65  CB        54.8750   21.0880   85.8070 C.3    60  TYR60       0.0548
     66  CG        54.0510   20.7810   87.0450 C.ar   60  TYR60      -0.0200
     67  CD1       53.4490   21.8010   87.7860 C.ar   60  TYR60      -0.0009
     68  CD2       53.9120   19.4670   87.5000 C.ar   60  TYR60      -0.0009
     69  CE1       52.7290   21.5130   88.9640 C.ar   60  TYR60       0.0417
     70  CE2       53.2070   19.1750   88.6560 C.ar   60  TYR60       0.0417
     71  CZ        52.6190   20.1990   89.3920 C.ar   60  TYR60       0.1957
     72  OH        51.9560   19.8860   90.5660 O.3    60  TYR60      -0.2866
     73  N         53.8980   23.6570   84.2610 N.am   61  PHE61      -0.1976
     74  CA        53.2010   24.9200   84.2900 C.3    61  PHE61       0.1639
     75  C         52.4980   25.1790   82.9840 C.2    61  PHE61       0.2290
     76  O         51.3310   25.5530   82.9850 O.2    61  PHE61      -0.2864
     77  CB        54.1530   26.0550   84.6260 C.3    61  PHE61       0.0560
     78  CG        54.5090   26.1070   86.0790 C.ar   61  PHE61      -0.0200
     79  CD1       53.5180   26.2460   87.0410 C.ar   61  PHE61      -0.0042
     80  CD2       55.8250   25.9670   86.4920 C.ar   61  PHE61      -0.0042
     81  CE1       53.8280   26.2410   88.3790 C.ar   61  PHE61      -0.0003
     82  CE2       56.1440   25.9600   87.8350 C.ar   61  PHE61      -0.0003
     83  CZ        55.1400   26.0970   88.7800 C.ar   61  PHE61      -0.0000
     84  N         47.7060   17.7170   89.2550 N.3    69  ASP69      -0.1239
     85  CA        48.5010   16.9620   90.2110 C.3    69  ASP69       0.1674
     86  C         47.6620   16.5470   91.4560 C.2    69  ASP69       0.2266
     87  O         47.1830   17.3890   92.2390 O.2    69  ASP69      -0.2867
     88  CB        49.6970   17.8440   90.6200 C.3    69  ASP69       0.1410
     89  CG        50.7620   17.0970   91.4120 C.2    69  ASP69       0.3668
     90  OD1       50.4610   16.1030   92.1040 O.co2  69  ASP69      -0.2456
     91  OD2       51.9180   17.5410   91.3490 O.co2  69  ASP69      -0.2456
     92  N         48.7080   15.3970   93.9980 N.3    71  VAL71      -0.1231
     93  CA        49.5180   15.6680   95.1820 C.3    71  VAL71       0.1692
     94  C         49.2500   17.0860   95.6690 C.2    71  VAL71       0.2591
     95  O         49.0650   17.3120   96.8670 O.2    71  VAL71      -0.2718
     96  CB        51.0410   15.4640   94.8990 C.3    71  VAL71       0.0266
     97  CG1       51.8670   15.8650   96.1110 C.3    71  VAL71       0.0020
     98  CG2       51.3230   14.0060   94.6150 C.3    71  VAL71       0.0020
     99  N         49.2230   18.0340   94.7410 N.am   72  VAL72      -0.1980
    100  CA        48.9440   19.4100   95.1040 C.3    72  VAL72       0.1595
    101  C         47.5410   19.4670   95.6740 C.2    72  VAL72       0.2287
    102  O         47.3270   20.0120   96.7460 O.2    72  VAL72      -0.2864
    103  CB        49.0030   20.3560   93.8890 C.3    72  VAL72       0.0276
    104  CG1       48.2990   21.6770   94.2090 C.3    72  VAL72       0.0022
    105  CG2       50.4360   20.6070   93.5020 C.3    72  VAL72       0.0022
    106  N         52.5970    9.7470   98.6000 N.3    84  TRP84      -0.1241
    107  CA        51.8030    9.4830   97.3980 C.3    84  TRP84       0.1605
    108  C         52.5060    8.4300   96.5380 C.2    84  TRP84       0.2264
    109  O         53.6830    8.5880   96.2150 O.2    84  TRP84      -0.2867
    110  CB        51.5970   10.7710   96.5840 C.3    84  TRP84       0.0550
    111  CG        52.8230   11.5990   96.4380 C.ar   84  TRP84       0.0003
    112  CD1       53.3090   12.4960   97.3340 C.ar   84  TRP84       0.0946
    113  CD2       53.7570   11.5660   95.3570 C.ar   84  TRP84       0.0152
    114  NE1       54.4890   13.0250   96.8860 N.ar   84  TRP84      -0.2442
    115  CE2       54.7900   12.4730   95.6730 C.ar   84  TRP84       0.0810
    116  CE3       53.8270   10.8560   94.1540 C.ar   84  TRP84       0.0012
    117  CZ2       55.8790   12.6930   94.8280 C.ar   84  TRP84       0.0191
    118  CZ3       54.9140   11.0740   93.3140 C.ar   84  TRP84       0.0001
    119  CH2       55.9230   11.9850   93.6550 C.ar   84  TRP84       0.0015
    120  N         48.9290   11.9180   83.7670 N.3   100  PHE100     -0.1241
    121  CA        49.8410   12.7500   84.5570 C.3   100  PHE100      0.1605
    122  C         50.9360   11.9140   85.2060 C.2   100  PHE100      0.2264
    123  O         52.1040   12.0950   84.9030 O.2   100  PHE100     -0.2867
    124  CB        49.0550   13.4920   85.6460 C.3   100  PHE100      0.0534
    125  CG        49.9150   14.3360   86.5590 C.ar  100  PHE100     -0.0203
    126  CD1       50.4380   15.5550   86.1170 C.ar  100  PHE100     -0.0042
    127  CD2       50.2480   13.8790   87.8420 C.ar  100  PHE100     -0.0042
    128  CE1       51.2820   16.2930   86.9290 C.ar  100  PHE100     -0.0003
    129  CE2       51.0870   14.6110   88.6550 C.ar  100  PHE100     -0.0003
    130  CZ        51.6090   15.8170   88.2000 C.ar  100  PHE100     -0.0000
    131  N         59.9420   10.5140   88.9370 N.3   109  ILE109     -0.1245
    132  CA        58.9710   10.9070   89.9430 C.3   109  ILE109      0.1561
    133  C         57.8310    9.8910   89.9900 C.2   109  ILE109      0.2260
    134  O         56.8170   10.0300   89.3070 O.2   109  ILE109     -0.2867
    135  CB        58.4330   12.3140   89.6320 C.3   109  ILE109      0.0252
    136  CG1       59.6120   13.2330   89.2890 C.3   109  ILE109      0.0019
    137  CG2       57.7160   12.8830   90.8510 C.3   109  ILE109      0.0019
    138  CD1       59.2330   14.5610   88.6950 C.3   109  ILE109      0.0001
    139  N         58.2460   18.6010   99.1440 N.3   126  THR126     -0.1218
    140  CA        58.1070   17.2210   98.7570 C.3   126  THR126      0.1862
    141  C         59.3650   16.5580   98.1680 C.2   126  THR126      0.2287
    142  O         60.0980   17.1470   97.3760 O.2   126  THR126     -0.2866
    143  CB        56.8420   17.0910   97.8220 C.3   126  THR126      0.1770
    144  OG1       56.9520   15.9230   97.0150 O.3   126  THR126     -0.2211
    145  CG2       56.6640   18.3450   96.9540 C.3   126  THR126      0.0375
    146  N         60.8490   28.3230   88.7390 N.3   160  ALA160     -0.1245
    147  CA        59.6940   28.1550   87.8450 C.3   160  ALA160      0.1562
    148  C         58.4160   28.6860   88.4700 C.2   160  ALA160      0.2260
    149  O         58.3210   28.8280   89.6900 O.2   160  ALA160     -0.2867
    150  CB        59.4980   26.6840   87.5020 C.3   160  ALA160      0.0290
@<TRIPOS>BOND
     1    75    76    2
     2    75    74    1
     3    38    39    1
     4    61    62    1
     5    50    48   ar
     6    50    51   ar
     7   120   121    1
     8    48    45   ar
     9    39    40    1
    10    39    42    1
    11    41    40    2
    12    73    74    1
    13    73    63   am
    14    54    55    2
    15    54    53    1
    16    74    77    1
    17    40    52   am
    18    62    63    1
    19    62    65    1
    20   121   122    1
    21   121   124    1
    22    63    64    2
    23    77    78    1
    24    51    49   ar
    25   123   122    2
    26    52    53    1
    27    42    43    1
    28    45    43   ar
    29    45    47   ar
    30    53    56    1
    31   124   125    1
    32    56    57    1
    33    65    66    1
    34    43    44   ar
    35    49    47   ar
    36    78    80   ar
    37    78    79   ar
    38   126   125   ar
    39   126   128   ar
    40    47    46   ar
    41    80    82   ar
    42   125   127   ar
    43   128   130   ar
    44    79    81   ar
    45    66    68   ar
    46    66    67   ar
    47    57    58    1
    48    59    58    2
    49    44    46   ar
    50    58    60   am
    51    68    70   ar
    52   150   147    1
    53    67    69   ar
    54    29    28    2
    55    82    83   ar
    56   127   129   ar
    57   147   148    1
    58   147   146    1
    59    28    27    1
    60   130   129   ar
    61    81    83   ar
    62   148   149    2
    63    70    71   ar
    64   138   136    1
    65   131   132    1
    66    69    71   ar
    67    84    85    1
    68   136   135    1
    69   134   133    2
    70    71    72    1
    71    27    30    1
    72    27    26    1
    73    30    31    1
    74   135   132    1
    75   135   137    1
    76   132   133    1
    77    85    88    1
    78    85    86    1
    79    33    31   ar
    80    33    35   ar
    81    31    32   ar
    82    88    89    1
    83    22    21    2
    84    24    23    1
    85    91    89   ar
    86    35    36   ar
    87    89    90   ar
    88    86    87    2
    89    23    25    1
    90    23    20    1
    91    32    34   ar
    92    21    20    1
    93    18    15    1
    94    17    16    2
    95    20    19    1
    96    36    34   ar
    97    36    37    1
    98    14    15    1
    99    15    16    1
   100    13    11    1
   101   118   119   ar
   102   118   116   ar
   103   105   103    1
   104   119   117   ar
   105    12    11    1
   106   103   104    1
   107   103   100    1
   108    92    93    1
   109   116   113   ar
   110    11    10    1
   111     5     2    1
   112    98    96    1
   113    99   100    1
   114    99    94   am
   115   117   115   ar
   116    96    93    1
   117    96    97    1
   118   100   101    1
   119    93    94    1
   120     2     1    1
   121     2     3    1
   122   113   115   ar
   123   113   111   ar
   124    10     7    1
   125    94    95    2
   126   115   114   ar
   127   101   102    2
   128     7     6    1
   129     7     8    1
   130   109   108    2
   131     3     4    2
   132   111   110    1
   133   111   112   ar
   134   108   107    1
   135   110   107    1
   136   114   112   ar
   137   145   143    1
   138   144   143    1
   139     8     9    2
   140   142   141    2
   141   107   106    1
   142   143   140    1
   143   141   140    1
   144   140   139    1
