@<TRIPOS>MOLECULE
tmp/1h0mB00.pdb
 110 108 0 0 0
SMALL
GASTEIGER

@<TRIPOS>ATOM
      1  N         63.6760   19.0600   90.4960 N.3    52  TYR52      -0.1241
      2  CA        62.9780   18.3390   89.4490 C.3    52  TYR52       0.1605
      3  C         63.5370   18.6490   88.0780 C.2    52  TYR52       0.2264
      4  O         64.0530   19.7540   87.8290 O.2    52  TYR52      -0.2867
      5  CB        61.4900   18.6800   89.4870 C.3    52  TYR52       0.0534
      6  CG        60.6970   17.8970   90.5070 C.ar   52  TYR52      -0.0201
      7  CD1       61.3400   17.2070   91.5460 C.ar   52  TYR52      -0.0009
      8  CD2       59.3020   17.8670   90.4510 C.ar   52  TYR52      -0.0009
      9  CE1       60.6100   16.5090   92.5020 C.ar   52  TYR52       0.0417
     10  CE2       58.5680   17.1780   91.4040 C.ar   52  TYR52       0.0417
     11  CZ        59.2180   16.5050   92.4300 C.ar   52  TYR52       0.1957
     12  OH        58.4880   15.8870   93.4120 O.3    52  TYR52      -0.2866
     13  N         60.1800   18.6140   83.1420 N.3    56  TRP56      -0.1241
     14  CA        58.9790   18.4780   83.9560 C.3    56  TRP56       0.1605
     15  C         58.5620   19.8690   84.3900 C.2    56  TRP56       0.2264
     16  O         57.4120   20.2590   84.2280 O.2    56  TRP56      -0.2867
     17  CB        59.2520   17.6430   85.1860 C.3    56  TRP56       0.0550
     18  CG        58.0180   17.1920   85.8510 C.ar   56  TRP56       0.0003
     19  CD1       57.8320   17.0190   87.1850 C.ar   56  TRP56       0.0946
     20  CD2       56.8160   16.7370   85.2160 C.ar   56  TRP56       0.0152
     21  NE1       56.5910   16.4740   87.4310 N.ar   56  TRP56      -0.2442
     22  CE2       55.9440   16.2920   86.2400 C.ar   56  TRP56       0.0810
     23  CE3       56.3890   16.6590   83.8800 C.ar   56  TRP56       0.0012
     24  CZ2       54.6760   15.7730   85.9760 C.ar   56  TRP56       0.0191
     25  CZ3       55.1260   16.1430   83.6130 C.ar   56  TRP56       0.0001
     26  CH2       54.2840   15.7060   84.6610 C.ar   56  TRP56       0.0015
     27  N         54.9920   21.1980   83.3560 N.3    60  TYR60      -0.1241
     28  CA        54.0800   21.2530   84.5120 C.3    60  TYR60       0.1605
     29  C         53.2680   22.5340   84.5940 C.2    60  TYR60       0.2264
     30  O         52.0930   22.5060   84.9650 O.2    60  TYR60      -0.2867
     31  CB        54.8750   21.0880   85.8070 C.3    60  TYR60       0.0534
     32  CG        54.0510   20.7810   87.0450 C.ar   60  TYR60      -0.0201
     33  CD1       53.4490   21.8010   87.7860 C.ar   60  TYR60      -0.0009
     34  CD2       53.9120   19.4670   87.5000 C.ar   60  TYR60      -0.0009
     35  CE1       52.7290   21.5130   88.9640 C.ar   60  TYR60       0.0417
     36  CE2       53.2070   19.1750   88.6560 C.ar   60  TYR60       0.0417
     37  CZ        52.6190   20.1990   89.3920 C.ar   60  TYR60       0.1957
     38  OH        51.9560   19.8860   90.5660 O.3    60  TYR60      -0.2866
     39  N         47.7060   17.7170   89.2550 N.3    69  ASP69      -0.1239
     40  CA        48.5010   16.9620   90.2110 C.3    69  ASP69       0.1674
     41  C         47.6620   16.5470   91.4560 C.2    69  ASP69       0.2266
     42  O         47.1830   17.3890   92.2390 O.2    69  ASP69      -0.2867
     43  CB        49.6970   17.8440   90.6200 C.3    69  ASP69       0.1410
     44  CG        50.7620   17.0970   91.4120 C.2    69  ASP69       0.3668
     45  OD1       50.4610   16.1030   92.1040 O.co2  69  ASP69      -0.2456
     46  OD2       51.9180   17.5410   91.3490 O.co2  69  ASP69      -0.2456
     47  N         48.7080   15.3970   93.9980 N.3    71  VAL71      -0.1245
     48  CA        49.5180   15.6680   95.1820 C.3    71  VAL71       0.1561
     49  C         49.2500   17.0860   95.6690 C.2    71  VAL71       0.2260
     50  O         49.0650   17.3120   96.8670 O.2    71  VAL71      -0.2867
     51  CB        51.0410   15.4640   94.8990 C.3    71  VAL71       0.0252
     52  CG1       51.8670   15.8650   96.1110 C.3    71  VAL71       0.0019
     53  CG2       51.3230   14.0060   94.6150 C.3    71  VAL71       0.0019
     54  N         52.5970    9.7470   98.6000 N.3    84  TRP84      -0.1241
     55  CA        51.8030    9.4830   97.3980 C.3    84  TRP84       0.1605
     56  C         52.5060    8.4300   96.5380 C.2    84  TRP84       0.2264
     57  O         53.6830    8.5880   96.2150 O.2    84  TRP84      -0.2867
     58  CB        51.5970   10.7710   96.5840 C.3    84  TRP84       0.0550
     59  CG        52.8230   11.5990   96.4380 C.ar   84  TRP84       0.0003
     60  CD1       53.3090   12.4960   97.3340 C.ar   84  TRP84       0.0946
     61  CD2       53.7570   11.5660   95.3570 C.ar   84  TRP84       0.0152
     62  NE1       54.4890   13.0250   96.8860 N.ar   84  TRP84      -0.2442
     63  CE2       54.7900   12.4730   95.6730 C.ar   84  TRP84       0.0810
     64  CE3       53.8270   10.8560   94.1540 C.ar   84  TRP84       0.0012
     65  CZ2       55.8790   12.6930   94.8280 C.ar   84  TRP84       0.0191
     66  CZ3       54.9140   11.0740   93.3140 C.ar   84  TRP84       0.0001
     67  CH2       55.9230   11.9850   93.6550 C.ar   84  TRP84       0.0015
     68  N         48.9290   11.9180   83.7670 N.3   100  PHE100     -0.1227
     69  CA        49.8410   12.7500   84.5570 C.3   100  PHE100      0.1736
     70  C         50.9360   11.9140   85.2060 C.2   100  PHE100      0.2595
     71  O         52.1040   12.0950   84.9030 O.2   100  PHE100     -0.2718
     72  CB        49.0550   13.4920   85.6460 C.3   100  PHE100      0.0547
     73  CG        49.9150   14.3360   86.5590 C.ar  100  PHE100     -0.0202
     74  CD1       50.4380   15.5550   86.1170 C.ar  100  PHE100     -0.0042
     75  CD2       50.2480   13.8790   87.8420 C.ar  100  PHE100     -0.0042
     76  CE1       51.2820   16.2930   86.9290 C.ar  100  PHE100     -0.0003
     77  CE2       51.0870   14.6110   88.6550 C.ar  100  PHE100     -0.0003
     78  CZ        51.6090   15.8170   88.2000 C.ar  100  PHE100     -0.0000
     79  N         50.5510   11.0040   86.0980 N.am  101  TYR101     -0.1976
     80  CA        51.5040   10.1440   86.7930 C.3   101  TYR101      0.1639
     81  C         52.4450    9.3650   85.8830 C.2   101  TYR101      0.2290
     82  O         53.5940    9.0920   86.2620 O.2   101  TYR101     -0.2864
     83  CB        50.7730    9.1640   87.7100 C.3   101  TYR101      0.0560
     84  CG        50.4260    9.7360   89.0610 C.ar  101  TYR101     -0.0198
     85  CD1       49.7240    8.9810   89.9890 C.ar  101  TYR101     -0.0009
     86  CD2       50.8000   11.0310   89.4140 C.ar  101  TYR101     -0.0009
     87  CE1       49.4000    9.4990   91.2410 C.ar  101  TYR101      0.0417
     88  CE2       50.4830   11.5580   90.6600 C.ar  101  TYR101      0.0417
     89  CZ        49.7820   10.7870   91.5700 C.ar  101  TYR101      0.1957
     90  OH        49.4540   11.2950   92.8040 O.3   101  TYR101     -0.2866
     91  N         54.8830   11.8140   84.3680 N.3   104  ALA104     -0.1245
     92  CA        55.7690   12.2100   85.4590 C.3   104  ALA104      0.1562
     93  C         56.7870   11.1110   85.6860 C.2   104  ALA104      0.2260
     94  O         57.9260   11.3710   86.0650 O.2   104  ALA104     -0.2867
     95  CB        54.9680   12.4280   86.7240 C.3   104  ALA104      0.0290
     96  N         59.9420   10.5140   88.9370 N.3   109  ILE109     -0.1245
     97  CA        58.9710   10.9070   89.9430 C.3   109  ILE109      0.1561
     98  C         57.8310    9.8910   89.9900 C.2   109  ILE109      0.2260
     99  O         56.8170   10.0300   89.3070 O.2   109  ILE109     -0.2867
    100  CB        58.4330   12.3140   89.6320 C.3   109  ILE109      0.0252
    101  CG1       59.6120   13.2330   89.2890 C.3   109  ILE109      0.0019
    102  CG2       57.7160   12.8830   90.8510 C.3   109  ILE109      0.0019
    103  CD1       59.2330   14.5610   88.6950 C.3   109  ILE109      0.0001
    104  N         58.2460   18.6010   99.1440 N.3   126  THR126     -0.1218
    105  CA        58.1070   17.2210   98.7570 C.3   126  THR126      0.1862
    106  C         59.3650   16.5580   98.1680 C.2   126  THR126      0.2287
    107  O         60.0980   17.1470   97.3760 O.2   126  THR126     -0.2866
    108  CB        56.8420   17.0910   97.8220 C.3   126  THR126      0.1770
    109  OG1       56.9520   15.9230   97.0150 O.3   126  THR126     -0.2211
    110  CG2       56.6640   18.3450   96.9540 C.3   126  THR126      0.0375
@<TRIPOS>BOND
     1    13    14    1
     2    27    28    1
     3    25    23   ar
     4    25    26   ar
     5    68    69    1
     6    23    20   ar
     7    14    15    1
     8    14    17    1
     9    16    15    2
    10    91    92    1
    11    28    29    1
    12    28    31    1
    13    69    70    1
    14    69    72    1
    15    29    30    2
    16    26    24   ar
    17    71    70    2
    18    17    18    1
    19    70    79   am
    20    20    18   ar
    21    20    22   ar
    22    92    93    1
    23    92    95    1
    24    72    73    1
    25    93    94    2
    26    31    32    1
    27    18    19   ar
    28    81    82    2
    29    81    80    1
    30    24    22   ar
    31    79    80    1
    32    74    73   ar
    33    74    76   ar
    34    22    21   ar
    35    73    75   ar
    36    80    83    1
    37    76    78   ar
    38    32    34   ar
    39    32    33   ar
    40    19    21   ar
    41    34    36   ar
    42    83    84    1
    43    33    35   ar
    44     4     3    2
    45    75    77   ar
    46     3     2    1
    47    78    77   ar
    48    36    37   ar
    49   103   101    1
    50    96    97    1
    51    35    37   ar
    52    84    86   ar
    53    84    85   ar
    54    39    40    1
    55   101   100    1
    56    99    98    2
    57    37    38    1
    58    86    88   ar
    59     2     5    1
    60     2     1    1
    61     5     6    1
    62   100    97    1
    63   100   102    1
    64    97    98    1
    65    85    87   ar
    66    40    43    1
    67    40    41    1
    68     8     6   ar
    69     8    10   ar
    70     6     7   ar
    71    43    44    1
    72    88    89   ar
    73    87    89   ar
    74    46    44   ar
    75    10    11   ar
    76    44    45   ar
    77    41    42    2
    78     7     9   ar
    79    89    90    1
    80    11     9   ar
    81    11    12    1
    82    66    67   ar
    83    66    64   ar
    84    67    65   ar
    85    47    48    1
    86    64    61   ar
    87    53    51    1
    88    65    63   ar
    89    51    48    1
    90    51    52    1
    91    48    49    1
    92    61    63   ar
    93    61    59   ar
    94    49    50    2
    95    63    62   ar
    96    57    56    2
    97    59    58    1
    98    59    60   ar
    99    56    55    1
   100    58    55    1
   101    62    60   ar
   102   110   108    1
   103   109   108    1
   104   107   106    2
   105    55    54    1
   106   108   105    1
   107   106   105    1
   108   105   104    1
