@<TRIPOS>MOLECULE
tmp/1h0pA00.pdb
 110 108 0 0 0
SMALL
GASTEIGER

@<TRIPOS>ATOM
      1  N         55.3290   18.3900    1.3300 N.3    58  ARG58      -0.1245
      2  CA        54.6120   19.4640    1.9920 C.3    58  ARG58       0.1563
      3  C         55.5220   20.6910    2.0140 C.2    58  ARG58       0.2260
      4  O         56.5970   20.6390    2.6190 O.2    58  ARG58      -0.2867
      5  CB        54.2210   19.0620    3.4160 C.3    58  ARG58       0.0307
      6  CG        53.6320   20.1980    4.2550 C.3    58  ARG58       0.0489
      7  CD        53.2060   19.5930    5.6000 C.3    58  ARG58       0.2205
      8  NE        52.4650   20.5480    6.4070 N.pl3  58  ARG58      -0.0865
      9  CZ        52.6410   20.7510    7.7050 C.cat  58  ARG58       0.5346
     10  NH1       53.5490   20.0580    8.3770 N.pl3  58  ARG58       0.1354
     11  NH2       51.9030   21.6570    8.3410 N.pl3  58  ARG58       0.1354
     12  N         57.3890   29.2710    6.0150 N.3    63  PHE63      -0.1227
     13  CA        57.2720   28.3710    7.1800 C.3    63  PHE63       0.1736
     14  C         58.3440   27.3000    7.0720 C.2    63  PHE63       0.2595
     15  O         59.3360   27.3600    7.8060 O.2    63  PHE63      -0.2718
     16  CB        55.8930   27.7640    7.3470 C.3    63  PHE63       0.0547
     17  CG        55.6810   26.8000    8.4950 C.ar   63  PHE63      -0.0202
     18  CD1       56.4040   26.8350    9.6780 C.ar   63  PHE63      -0.0042
     19  CD2       54.7120   25.8180    8.3780 C.ar   63  PHE63      -0.0042
     20  CE1       56.1770   25.9110   10.6900 C.ar   63  PHE63      -0.0003
     21  CE2       54.4630   24.8830    9.3560 C.ar   63  PHE63      -0.0003
     22  CZ        55.2110   24.9420   10.5230 C.ar   63  PHE63      -0.0000
     23  N         58.1270   26.3150    6.2060 N.am   64  MET64      -0.1979
     24  CA        59.1090   25.2450    6.1890 C.3    64  MET64       0.1605
     25  C         58.9190   24.3780    4.9500 C.2    64  MET64       0.2287
     26  O         57.8930   24.5090    4.2850 O.2    64  MET64      -0.2864
     27  CB        58.9560   24.3860    7.4580 C.3    64  MET64       0.0413
     28  CG        57.5350   23.8660    7.6240 C.3    64  MET64       0.0598
     29  SD        57.3440   22.2440    6.8500 S.3    64  MET64      -0.1393
     30  CE        55.6760   22.3450    6.2050 C.3    64  MET64       0.0692
     31  N         58.9210   20.1610    3.9660 N.3    66  GLN66      -0.1245
     32  CA        58.9390   18.8980    4.6920 C.3    66  GLN66       0.1566
     33  C         59.0070   17.7070    3.7410 C.2    66  GLN66       0.2260
     34  O         58.3340   17.6590    2.7070 O.2    66  GLN66      -0.2867
     35  CB        57.7110   18.7520    5.5950 C.3    66  GLN66       0.0367
     36  CG        57.5010   17.3570    6.1880 C.3    66  GLN66       0.0905
     37  CD        56.2900   17.2920    7.1210 C.2    66  GLN66       0.2608
     38  OE1       55.7870   16.2190    7.4730 O.2    66  GLN66      -0.2717
     39  NE2       55.8030   18.4490    7.5350 N.am   66  GLN66      -0.0878
     40  N         56.5990   15.0980   13.2820 N.3   105  ASN105     -0.1225
     41  CA        56.0330   14.0030   14.0830 C.3   105  ASN105      0.1785
     42  C         54.5260   14.1940   14.1870 C.2   105  ASN105      0.2597
     43  O         53.9960   15.2250   13.7610 O.2   105  ASN105     -0.2718
     44  CB        56.6520   13.9190   15.4750 C.3   105  ASN105      0.1169
     45  CG        56.4210   15.1840   16.2880 C.2   105  ASN105      0.2627
     46  OD1       55.2970   15.6830   16.4200 O.2   105  ASN105     -0.2716
     47  ND2       57.5030   15.7250   16.8570 N.am  105  ASN105     -0.0877
     48  N         53.9220   13.1740   14.7880 N.am  106  ALA106     -0.1966
     49  CA        52.4890   13.2440   15.0760 C.3   106  ALA106      0.1728
     50  C         52.2350   13.2680   16.5750 C.2   106  ALA106      0.2616
     51  O         51.3290   12.5650   17.0320 O.2   106  ALA106     -0.2715
     52  CB        51.7680   12.0740   14.4160 C.3   106  ALA106      0.0334
     53  N         53.0200   14.0550   17.3150 N.am  107  GLY107     -0.1955
     54  CA        52.9060   14.0830   18.7710 C.3   107  GLY107      0.1869
     55  C         54.0990   13.4290   19.4430 C.2   107  GLY107      0.2309
     56  O         54.9800   12.9360   18.7370 O.2   107  GLY107     -0.2863
     57  N         61.7580   18.2970    8.5480 N.3   116  PHE116     -0.1241
     58  CA        61.5470   19.5430    7.8370 C.3   116  PHE116      0.1605
     59  C         62.7470   20.4600    8.0340 C.2   116  PHE116      0.2264
     60  O         63.5510   20.3560    8.9520 O.2   116  PHE116     -0.2867
     61  CB        60.2760   20.2680    8.2700 C.3   116  PHE116      0.0534
     62  CG        60.1740   20.6440    9.7420 C.ar  116  PHE116     -0.0203
     63  CD1       59.7740   19.6960   10.6730 C.ar  116  PHE116     -0.0042
     64  CD2       60.4630   21.9280   10.1630 C.ar  116  PHE116     -0.0042
     65  CE1       59.6620   20.0520   12.0130 C.ar  116  PHE116     -0.0003
     66  CE2       60.3450   22.3040   11.4920 C.ar  116  PHE116     -0.0003
     67  CZ        59.9370   21.3510   12.4110 C.ar  116  PHE116     -0.0000
     68  N         57.1170   28.3540   17.9670 N.3   124  TRP124     -0.1227
     69  CA        56.0050   27.5450   18.4820 C.3   124  TRP124      0.1737
     70  C         56.2810   26.0540   18.3590 C.2   124  TRP124      0.2595
     71  O         55.5160   25.2470   18.9010 O.2   124  TRP124     -0.2718
     72  CB        54.6950   27.9010   17.7570 C.3   124  TRP124      0.0564
     73  CG        54.7720   27.7630   16.2570 C.ar  124  TRP124      0.0003
     74  CD1       54.3260   26.6810   15.5460 C.ar  124  TRP124      0.0946
     75  CD2       55.3040   28.6850   15.2890 C.ar  124  TRP124      0.0152
     76  NE1       54.5480   26.8850   14.2000 N.ar  124  TRP124     -0.2442
     77  CE2       55.1460   28.1000   14.0180 C.ar  124  TRP124      0.0810
     78  CE3       55.8970   29.9490   15.3530 C.ar  124  TRP124      0.0012
     79  CZ2       55.5580   28.7270   12.8410 C.ar  124  TRP124      0.0191
     80  CZ3       56.3030   30.5720   14.1890 C.ar  124  TRP124      0.0001
     81  CH2       56.1330   29.9650   12.9360 C.ar  124  TRP124      0.0015
     82  N         57.3270   25.6690   17.6180 N.am  125  LEU125     -0.1980
     83  CA        57.6920   24.2660   17.4600 C.3   125  LEU125      0.1596
     84  C         58.7450   23.8080   18.4800 C.2   125  LEU125      0.2287
     85  O         59.0740   22.6360   18.6060 O.2   125  LEU125     -0.2864
     86  CB        58.2300   24.0220   16.0440 C.3   125  LEU125      0.0297
     87  CG        57.3230   24.3530   14.8540 C.3   125  LEU125      0.0022
     88  CD1       57.9690   23.8420   13.5580 C.3   125  LEU125      0.0001
     89  CD2       55.9450   23.7480   14.9980 C.3   125  LEU125      0.0001
     90  N         58.7130   20.6370   20.9220 N.3   128  ARG128     -0.1231
     91  CA        57.7850   19.6770   20.3540 C.3   128  ARG128      0.1694
     92  C         58.3960   18.8570   19.2160 C.2   128  ARG128      0.2592
     93  O         57.9810   17.7260   18.9800 O.2   128  ARG128     -0.2718
     94  CB        56.5080   20.3730   19.8490 C.3   128  ARG128      0.0321
     95  CG        55.8440   21.2250   20.9140 C.3   128  ARG128      0.0489
     96  CD        54.3870   21.5350   20.6630 C.3   128  ARG128      0.2205
     97  NE        54.1010   22.1390   19.3750 N.pl3 128  ARG128     -0.0865
     98  CZ        53.5200   23.3140   19.1780 C.cat 128  ARG128      0.5346
     99  NH1       53.3060   23.7600   17.9440 N.pl3 128  ARG128      0.1354
    100  NH2       53.1440   24.0620   20.2110 N.pl3 128  ARG128      0.1354
    101  N         59.3660   19.4180   18.5160 N.am  129  HIS129     -0.1976
    102  CA        60.0540   18.7460   17.4190 C.3   129  HIS129      0.1656
    103  C         61.5550   18.7450   17.6780 C.2   129  HIS129      0.2291
    104  O         62.1120   19.8030   18.0190 O.2   129  HIS129     -0.2864
    105  CB        59.7690   19.4730   16.0910 C.3   129  HIS129      0.0771
    106  CG        58.2970   19.3820   15.7880 C.ar  129  HIS129      0.0820
    107  ND1       57.7720   18.3930   14.9760 N.ar  129  HIS129     -0.2267
    108  CD2       57.2590   20.1220   16.2120 C.ar  129  HIS129      0.1154
    109  CE1       56.4660   18.5450   14.9070 C.ar  129  HIS129      0.1986
    110  NE2       56.1310   19.5880   15.6410 N.ar  129  HIS129     -0.2212
@<TRIPOS>BOND
     1     1     2    1
     2     2     3    1
     3     2     5    1
     4     3     4    2
     5    34    33    2
     6     5     6    1
     7    33    32    1
     8    31    32    1
     9     6     7    1
    10    26    25    2
    11    32    35    1
    12    25    24    1
    13    35    36    1
    14     7     8    1
    15    12    13    1
    16    36    37    1
    17    24    23    1
    18    24    27    1
    19    30    29    1
    20    23    14   am
    21     8     9    2
    22    29    28    1
    23    14    13    1
    24    14    15    2
    25    37    38    2
    26    37    39   am
    27    13    16    1
    28    16    17    1
    29    27    28    1
    30     9    11    1
    31     9    10    1
    32    58    59    1
    33    58    61    1
    34    58    57    1
    35    59    60    2
    36    61    62    1
    37    19    17   ar
    38    19    21   ar
    39    17    18   ar
    40    21    22   ar
    41    18    20   ar
    42    62    64   ar
    43    62    63   ar
    44    64    66   ar
    45    22    20   ar
    46    63    65   ar
    47    66    67   ar
    48    65    67   ar
    49    79    81   ar
    50    79    77   ar
    51    81    80   ar
    52    40    41    1
    53    88    87    1
    54    43    42    2
    55    77    76   ar
    56    77    75   ar
    57    41    42    1
    58    41    44    1
    59    42    48   am
    60    80    78   ar
    61    76    74   ar
    62    52    49    1
    63    48    49    1
    64    87    89    1
    65    87    86    1
    66   109   107   ar
    67   109   110   ar
    68   107   106   ar
    69    49    50    1
    70    75    78   ar
    71    75    73   ar
    72    44    45    1
    73    74    73   ar
    74   110   108   ar
    75   106   105    1
    76   106   108   ar
    77    86    83    1
    78   105   102    1
    79    73    72    1
    80    45    46    2
    81    45    47   am
    82    50    51    2
    83    50    53   am
    84    53    54    1
    85   102   103    1
    86   102   101    1
    87    83    82    1
    88    83    84    1
    89    82    70   am
    90   103   104    2
    91    72    69    1
    92    99    98    1
    93    68    69    1
    94    70    69    1
    95    70    71    2
    96    84    85    2
    97   101    92   am
    98    56    55    2
    99    54    55    1
   100    93    92    2
   101    98    97    2
   102    98   100    1
   103    92    91    1
   104    97    96    1
   105    94    91    1
   106    94    95    1
   107    91    90    1
   108    96    95    1
