@<TRIPOS>MOLECULE
tmp/1h0sA00.pdb
 113 107 0 0 0
SMALL
GASTEIGER

@<TRIPOS>ATOM
      1  N         21.6020   70.6540   15.8620 N.3    10  PRO10      -0.2102
      2  CA        22.1480   71.0840   14.5720 C.3    10  PRO10       0.1504
      3  C         23.5860   70.7020   14.2680 C.2    10  PRO10       0.2576
      4  O         24.4390   70.7910   15.1340 O.2    10  PRO10      -0.2718
      5  CB        22.0190   72.6110   14.5950 C.3    10  PRO10       0.0282
      6  CG        20.8070   72.8460   15.4540 C.3    10  PRO10       0.0208
      7  CD        20.8570   71.7410   16.5270 C.3    10  PRO10       0.0893
      8  N         23.8010   70.2440   13.0150 N.am   11  ASN11      -0.1961
      9  CA        25.0980   69.9160   12.4070 C.3    11  ASN11       0.1819
     10  C         25.6490   68.5630   12.8120 C.2    11  ASN11       0.2621
     11  O         26.6000   68.0890   12.2150 O.2    11  ASN11      -0.2715
     12  CB        26.1460   71.0160   12.6130 C.3    11  ASN11       0.1195
     13  CG        25.7470   72.3210   11.8940 C.2    11  ASN11       0.2630
     14  OD1       25.4880   72.3120   10.7000 O.2    11  ASN11      -0.2716
     15  ND2       25.5330   73.3830   12.6650 N.am   11  ASN11      -0.0877
     16  N         24.9850   67.8850   13.7490 N.am   12  LEU12      -0.1977
     17  CA        25.4290   66.5480   14.1720 C.3    12  LEU12       0.1596
     18  C         25.1110   65.4600   13.1580 C.2    12  LEU12       0.2287
     19  O         25.7540   64.4050   13.1830 O.2    12  LEU12      -0.2864
     20  CB        24.9680   66.2240   15.5940 C.3    12  LEU12       0.0297
     21  CG        25.7660   67.0620   16.5810 C.3    12  LEU12       0.0022
     22  CD1       24.9800   67.4500   17.8140 C.3    12  LEU12       0.0001
     23  CD2       27.1050   66.3490   16.9800 C.3    12  LEU12       0.0001
     24  N         32.7650   66.6380    8.8070 N.3    18  ARG18      -0.1241
     25  CA        32.9870   67.8980    9.5920 C.3    18  ARG18       0.1606
     26  C         34.4470   68.1090   10.0320 C.2    18  ARG18       0.2264
     27  O         34.7820   69.1210   10.6850 O.2    18  ARG18      -0.2867
     28  CB        32.1030   67.9300   10.8610 C.3    18  ARG18       0.0562
     29  CG        30.8040   68.6450   10.7090 C.2    18  ARG18       0.0159
     30  CD        30.0040   68.9030   12.0100 C.2    18  ARG18       0.1886
     31  NE        30.5500   68.3000   13.2350 N.pl3  18  ARG18      -0.0578
     32  CZ        30.0830   68.5520   14.4600 C.cat  18  ARG18       0.5393
     33  NH1       29.0470   69.3680   14.6110 N.pl3  18  ARG18       0.1358
     34  NH2       30.6530   68.0020   15.5370 N.pl3  18  ARG18       0.1358
     35  N         22.8690   66.4270   23.1610 N.3    68  ASN68      -0.1240
     36  CA        23.9370   67.2200   22.5740 C.3    68  ASN68       0.1653
     37  C         23.2410   68.1750   21.5970 C.2    68  ASN68       0.2266
     38  O         22.9080   67.8270   20.4840 O.2    68  ASN68      -0.2867
     39  CB        24.9300   66.3350   21.8260 C.3    68  ASN68       0.1155
     40  CG        26.0950   67.1440   21.2460 C.2    68  ASN68       0.2627
     41  OD1       26.0330   68.3930   21.1950 O.2    68  ASN68      -0.2716
     42  ND2       27.1470   66.4430   20.7470 N.am   68  ASN68      -0.0877
     43  N         24.1410   70.8390   19.9550 N.3    70  GLY70      -0.1210
     44  CA        24.8840   71.5770   18.9460 C.3    70  GLY70       0.1956
     45  C         24.9030   73.0510   19.2400 C.2    70  GLY70       0.2612
     46  O         24.9550   73.4870   20.4260 O.2    70  GLY70      -0.2717
     47  N         24.8240   73.8620   18.1780 N.am   71  GLY71      -0.1956
     48  CA        24.8630   75.2980   18.3870 C.3    71  GLY71       0.1869
     49  C         23.7880   75.8920   19.2890 C.2    71  GLY71       0.2309
     50  O         23.9820   76.9630   19.8920 O.2    71  GLY71      -0.2863
     51  N         24.2150   77.0900   23.1460 N.3    74  HIS74      -0.1241
     52  CA        24.6910   78.4090   23.4820 C.3    74  HIS74       0.1621
     53  C         23.6480   79.5260   23.2670 C.2    74  HIS74       0.2264
     54  O         23.9050   80.6700   23.6410 O.2    74  HIS74      -0.2867
     55  CB        25.9380   78.6670   22.6030 C.3    74  HIS74       0.0745
     56  CG        26.8900   77.5040   22.6020 C.ar   74  HIS74       0.0817
     57  ND1       27.4420   76.9590   23.7520 N.ar   74  HIS74      -0.2268
     58  CD2       27.2840   76.6950   21.5860 C.ar   74  HIS74       0.1154
     59  CE1       28.1690   75.8880   23.4110 C.ar   74  HIS74       0.1986
     60  NE2       28.0700   75.7070   22.1120 N.ar   74  HIS74      -0.2212
     61  N         28.8750   67.0300   24.9340 N.3    94  HIS94      -0.1226
     62  CA        29.5230   67.6060   23.7160 C.3    94  HIS94       0.1752
     63  C         30.7610   66.7470   23.3860 C.2    94  HIS94       0.2596
     64  O         31.5260   66.3680   24.2720 O.2    94  HIS94      -0.2718
     65  CB        29.9150   69.0590   23.9520 C.3    94  HIS94       0.0759
     66  CG        28.7380   69.9120   24.3520 C.ar   94  HIS94       0.0818
     67  ND1       27.7340   70.1800   23.4550 N.ar   94  HIS94      -0.2268
     68  CD2       28.3220   70.3960   25.5390 C.ar   94  HIS94       0.1154
     69  CE1       26.7800   70.8660   24.0590 C.ar   94  HIS94       0.1986
     70  NE2       27.1020   71.0110   25.3310 N.ar   94  HIS94      -0.2212
     71  N         30.9290   66.4540   22.1070 N.am   95  ILE95      -0.1966
     72  CA        32.0560   65.6920   21.6110 C.3    95  ILE95       0.1727
     73  C         33.3910   66.4390   21.8140 C.2    95  ILE95       0.2616
     74  O         34.3500   65.8770   22.3320 O.2    95  ILE95      -0.2715
     75  CB        31.7870   65.3620   20.1010 C.3    95  ILE95       0.0290
     76  CG1       30.5900   64.4200   19.9490 C.3    95  ILE95       0.0022
     77  CG2       33.0470   64.7900   19.3680 C.3    95  ILE95       0.0023
     78  CD1       30.0780   64.3060   18.5420 C.3    95  ILE95       0.0001
     79  N         33.4180   67.7250   21.4300 N.am   96  SER96      -0.1950
     80  CA        34.5600   68.6050   21.5890 C.3    96  SER96       0.1924
     81  C         34.6030   69.2160   22.9680 C.2    96  SER96       0.2314
     82  O         33.5830   69.2990   23.6470 O.2    96  SER96      -0.2863
     83  CB        34.5340   69.6900   20.5060 C.3    96  SER96       0.2116
     84  OG        33.5380   70.6860   20.7680 O.3    96  SER96      -0.2180
     85  N         34.2680   72.1470   24.6000 N.3    98  VAL98      -0.1245
     86  CA        33.7540   73.4960   24.3850 C.3    98  VAL98       0.1561
     87  C         34.4550   74.5400   25.1990 C.2    98  VAL98       0.2260
     88  O         34.5100   75.7050   24.8100 O.2    98  VAL98      -0.2867
     89  CB        32.2490   73.5660   24.6090 C.3    98  VAL98       0.0252
     90  CG1       31.5050   72.7780   23.5230 C.3    98  VAL98       0.0019
     91  CG2       31.8570   73.1970   26.0550 C.3    98  VAL98       0.0019
     92  N         37.4790   76.3110   23.3260 N.3   101  ARG101     -0.1245
     93  CA        37.1990   76.8400   21.9930 C.3   101  ARG101      0.1563
     94  C         36.8120   78.3260   22.1180 C.2   101  ARG101      0.2260
     95  O         37.2550   78.9980   23.0990 O.2   101  ARG101     -0.2867
     96  CB        36.1380   75.9640   21.3140 C.3   101  ARG101      0.0307
     97  CG        36.5530   74.4960   21.1040 C.3   101  ARG101      0.0489
     98  CD        35.5230   73.6720   20.3700 C.3   101  ARG101      0.2205
     99  NE        35.2700   74.1760   19.0390 N.pl3 101  ARG101     -0.0865
    100  CZ        34.2670   73.7390   18.2780 C.cat 101  ARG101      0.5346
    101  NH1       33.4570   72.7950   18.7340 N.pl3 101  ARG101      0.1354
    102  NH2       34.0960   74.2530   17.0680 N.pl3 101  ARG101      0.1354
    103  N         31.2440   79.5630   23.1220 N.3   105  ARG105     -0.1245
    104  CA        30.9430   78.1480   23.3590 C.3   105  ARG105      0.1563
    105  C         31.1170   77.7210   24.8100 C.2   105  ARG105      0.2260
    106  O         30.7080   76.6190   25.2110 O.2   105  ARG105     -0.2867
    107  CB        31.8570   77.2520   22.5580 C.3   105  ARG105      0.0307
    108  CG        31.6670   77.3180   21.0930 C.3   105  ARG105      0.0489
    109  CD        32.2720   76.1240   20.3290 C.3   105  ARG105      0.2205
    110  NE        32.4810   76.6290   18.9860 N.pl3 105  ARG105     -0.0865
    111  CZ        31.5830   76.6010   18.0070 C.cat 105  ARG105      0.5346
    112  NH1       30.4390   75.9320   18.1360 N.pl3 105  ARG105      0.1354
    113  NH2       31.8680   77.1670   16.8470 N.pl3 105  ARG105      0.1354
@<TRIPOS>BOND
     1    24    25    1
     2    25    26    1
     3    25    28    1
     4    26    27    2
     5    14    13    2
     6    29    28    1
     7    29    30    2
     8    13    12    1
     9    13    15   am
    10    30    31    1
    11    11    10    2
    12     9    12    1
    13     9    10    1
    14     9     8    1
    15    10    16   am
    16     8     3   am
    17    18    19    2
    18    18    17    1
    19    31    32    2
    20    16    17    1
    21    17    20    1
    22     3     2    1
    23     3     4    2
    24    32    33    1
    25    32    34    1
    26     2     5    1
    27     2     1    1
    28     5     6    1
    29     6     7    1
    30    20    21    1
    31     1     7    1
    32    21    23    1
    33    21    22    1
    34   113   111    1
    35   102   100    1
    36   111   112    1
    37   111   110    2
    38    47    48    1
    39    47    45   am
    40   100   101    1
    41   100    99    2
    42    48    49    1
    43    78    76    1
    44    44    45    1
    45    44    43    1
    46   110   109    1
    47    99    98    1
    48    45    46    2
    49    49    50    2
    50    77    75    1
    51    76    75    1
    52    75    72    1
    53   109   108    1
    54    98    97    1
    55    38    37    2
    56    83    84    1
    57    83    80    1
    58    42    40   am
    59   108   107    1
    60    97    96    1
    61    41    40    2
    62    40    39    1
    63    96    93    1
    64    79    80    1
    65    79    73   am
    66    58    60   ar
    67    58    56   ar
    68    80    81    1
    69    37    36    1
    70    72    73    1
    71    72    71    1
    72    73    74    2
    73    39    36    1
    74    93    94    1
    75    93    92    1
    76    71    63   am
    77    60    59   ar
    78    94    95    2
    79   107   104    1
    80    36    35    1
    81    56    55    1
    82    56    57   ar
    83    55    52    1
    84    81    82    2
    85   103   104    1
    86    51    52    1
    87    53    52    1
    88    53    54    2
    89   104   105    1
    90    63    62    1
    91    63    64    2
    92    59    57   ar
    93    67    69   ar
    94    67    66   ar
    95    90    89    1
    96    62    65    1
    97    62    61    1
    98    65    66    1
    99    69    70   ar
   100    66    68   ar
   101    86    85    1
   102    86    89    1
   103    86    87    1
   104    89    91    1
   105    88    87    2
   106   105   106    2
   107    70    68   ar
