@<TRIPOS>MOLECULE
tmp/1h0vA00.pdb
 158 151 0 0 0
SMALL
GASTEIGER

@<TRIPOS>ATOM
      1  N         -0.2640   22.7280    3.2620 N.3    10  ILE10      -0.1231
      2  CA         0.8420   23.0670    4.1150 C.3    10  ILE10       0.1692
      3  C          0.8260   22.1390    5.2560 C.2    10  ILE10       0.2593
      4  O          1.8860   21.7330    5.7080 O.2    10  ILE10      -0.2718
      5  CB         0.7680   24.5080    4.6550 C.3    10  ILE10       0.0266
      6  CG1        0.9790   25.5050    3.5550 C.3    10  ILE10       0.0019
      7  CG2        1.8220   24.7360    5.7800 C.3    10  ILE10       0.0020
      8  CD1        0.6430   26.9190    4.0010 C.3    10  ILE10       0.0001
      9  N         -0.3820   21.8250    5.7360 N.am   11  GLY11      -0.1942
     10  CA        -0.5330   20.9610    6.8810 C.3    11  GLY11       0.2014
     11  C         -1.9380   20.9980    7.4510 C.2    11  GLY11       0.2639
     12  O         -2.8930   21.5230    6.8350 O.2    11  GLY11      -0.2714
     13  N         -2.0350   20.4030    8.6350 N.am   12  GLU12      -0.1963
     14  CA        -3.2590   20.3270    9.3690 C.3    12  GLU12       0.1733
     15  C         -3.1400   21.2330   10.5470 C.2    12  GLU12       0.2616
     16  O         -2.2110   21.1510   11.3510 O.2    12  GLU12      -0.2715
     17  CB        -3.4760   18.9000    9.8470 C.3    12  GLU12       0.0429
     18  CG        -3.1710   17.9210    8.7300 C.3    12  GLU12       0.1163
     19  CD        -4.2480   16.8890    8.5780 C.2    12  GLU12       0.3649
     20  OE1       -4.2040   15.8800    9.3390 O.co2  12  GLU12      -0.2457
     21  OE2       -5.1260   17.1160    7.6900 O.co2  12  GLU12      -0.2457
     22  N         -4.0890   22.1250   10.6580 N.am   13  GLY13      -0.1955
     23  CA        -4.0410   23.0190   11.7930 C.3    13  GLY13       0.1869
     24  C         -5.1260   22.6510   12.7940 C.2    13  GLY13       0.2309
     25  O         -5.9090   21.7350   12.6070 O.2    13  GLY13      -0.2863
     26  N         -4.7740   23.4300    6.0340 N.3    18  VAL18      -0.1245
     27  CA        -4.2260   24.7560    5.7510 C.3    18  VAL18       0.1561
     28  C         -3.4960   24.6330    4.4410 C.2    18  VAL18       0.2260
     29  O         -2.7370   23.7500    4.2820 O.2    18  VAL18      -0.2867
     30  CB        -3.2230   25.1840    6.8440 C.3    18  VAL18       0.0252
     31  CG1       -2.5270   26.4710    6.4560 C.3    18  VAL18       0.0019
     32  CG2       -3.9050   25.3320    8.1810 C.3    18  VAL18       0.0019
     33  N         -1.9760   31.9380    2.8650 N.3    31  ALA31      -0.1245
     34  CA        -2.2650   30.7180    3.5340 C.3    31  ALA31       0.1562
     35  C         -3.7930   30.7230    3.7520 C.2    31  ALA31       0.2260
     36  O         -4.3560   31.6580    4.3050 O.2    31  ALA31      -0.2867
     37  CB        -1.5490   30.6430    4.8250 C.3    31  ALA31       0.0290
     38  N         -7.0350   28.8390    5.3590 N.3    33  LYS33      -0.1245
     39  CA        -7.3820   27.8730    6.3970 C.3    33  LYS33       0.1561
     40  C         -8.8760   27.5960    6.3450 C.2    33  LYS33       0.2260
     41  O         -9.6830   28.4710    6.5880 O.2    33  LYS33      -0.2867
     42  CB        -7.0340   28.3990    7.7800 C.3    33  LYS33       0.0271
     43  CG        -5.6300   28.9310    7.9800 C.3    33  LYS33       0.0035
     44  CD        -5.1180   28.6690    9.4410 C.3    33  LYS33       0.0206
     45  CE        -3.6490   29.0570    9.4760 C.3    33  LYS33       0.1093
     46  NZ        -2.9280   29.0730   10.7860 N.3    33  LYS33      -0.1314
     47  N          0.4140   37.5100   12.6390 N.3    57  VAL57      -0.1245
     48  CA         0.1960   37.1230   11.2600 C.3    57  VAL57       0.1561
     49  C         -1.0600   37.8480   10.7980 C.2    57  VAL57       0.2260
     50  O         -2.0950   37.8060   11.4960 O.2    57  VAL57      -0.2867
     51  CB         0.0100   35.6530   11.1260 C.3    57  VAL57       0.0252
     52  CG1       -0.3050   35.2390    9.6490 C.3    57  VAL57       0.0019
     53  CG2        1.3490   34.9730   11.5290 C.3    57  VAL57       0.0019
     54  N         -4.9490   34.1590    5.3880 N.3    73  PHE73      -0.1227
     55  CA        -3.9170   34.8090    6.1670 C.3    73  PHE73       0.1736
     56  C         -2.6730   35.1170    5.2960 C.2    73  PHE73       0.2595
     57  O         -2.4120   34.4410    4.2770 O.2    73  PHE73      -0.2718
     58  CB        -3.4310   33.9300    7.3160 C.3    73  PHE73       0.0547
     59  CG        -4.3400   33.8570    8.5180 C.ar   73  PHE73      -0.0202
     60  CD1       -5.2510   32.8220    8.6710 C.ar   73  PHE73      -0.0042
     61  CD2       -4.3070   34.8410    9.4860 C.ar   73  PHE73      -0.0042
     62  CE1       -6.0690   32.7460    9.8020 C.ar   73  PHE73      -0.0003
     63  CE2       -5.1230   34.7850   10.6140 C.ar   73  PHE73      -0.0003
     64  CZ        -5.9870   33.7230   10.7860 C.ar   73  PHE73      -0.0000
     65  N         -1.8790   36.0670    5.7770 N.am   74  GLU74      -0.1965
     66  CA        -0.5310   36.2960    5.3210 C.3    74  GLU74       0.1733
     67  C          0.2750   34.9740    5.3260 C.2    74  GLU74       0.2616
     68  O          0.2260   34.2640    6.2870 O.2    74  GLU74      -0.2715
     69  CB         0.1120   37.3320    6.3210 C.3    74  GLU74       0.0429
     70  CG         1.5900   37.4120    6.2570 C.3    74  GLU74       0.1163
     71  CD         2.2190   38.3450    7.3400 C.2    74  GLU74       0.3649
     72  OE1        3.4050   38.5930    7.1620 O.co2  74  GLU74      -0.2457
     73  OE2        1.5990   38.7740    8.3640 O.co2  74  GLU74      -0.2457
     74  N          1.0810   34.7080    4.3130 N.am   75  PHE75      -0.1960
     75  CA         1.8970   33.5160    4.2250 C.3    75  PHE75       0.1771
     76  C          3.3210   33.7610    4.6490 C.2    75  PHE75       0.2619
     77  O          3.9500   34.7300    4.1700 O.2    75  PHE75      -0.2715
     78  CB         1.9440   33.0280    2.7770 C.3    75  PHE75       0.0574
     79  CG         2.8340   31.8410    2.5530 C.ar   75  PHE75      -0.0200
     80  CD1        2.3670   30.5450    2.8030 C.ar   75  PHE75      -0.0042
     81  CD2        4.1050   31.9870    2.0530 C.ar   75  PHE75      -0.0042
     82  CE1        3.1430   29.4990    2.5700 C.ar   75  PHE75      -0.0003
     83  CE2        4.8640   30.8980    1.8150 C.ar   75  PHE75      -0.0003
     84  CZ         4.3700   29.6660    2.0630 C.ar   75  PHE75      -0.0000
     85  N          3.8460   32.9100    5.5410 N.am   76  LEU76      -0.1963
     86  CA         5.2530   32.9960    5.9230 C.3    76  LEU76       0.1728
     87  C          5.9650   31.7520    5.5340 C.2    76  LEU76       0.2616
     88  O          5.3270   30.7350    5.3540 O.2    76  LEU76      -0.2715
     89  CB         5.4740   33.2680    7.3920 C.3    76  LEU76       0.0311
     90  CG         5.2650   34.7370    7.7090 C.3    76  LEU76       0.0022
     91  CD1        3.8170   34.9470    8.1280 C.3    76  LEU76       0.0001
     92  CD2        6.1770   35.2790    8.7430 C.3    76  LEU76       0.0001
     93  N          7.2970   31.7260    5.5630 N.am   77  HIS77      -0.1959
     94  CA         7.8060   30.5290    4.9370 C.3    77  HIS77       0.1787
     95  C          8.0170   29.3270    5.8360 C.2    77  HIS77       0.2620
     96  O          8.0740   28.2530    5.3260 O.2    77  HIS77      -0.2715
     97  CB         8.9760   30.7980    3.9580 C.3    77  HIS77       0.0785
     98  CG         8.5570   31.3060    2.5950 C.ar   77  HIS77       0.0821
     99  ND1        8.0380   32.5750    2.3890 N.ar   77  HIS77      -0.2267
    100  CD2        8.5260   30.6780    1.3860 C.ar   77  HIS77       0.1154
    101  CE1        7.7520   32.7080    1.0950 C.ar   77  HIS77       0.1986
    102  NE2        8.0910   31.5890    0.4570 N.ar   77  HIS77      -0.2212
    103  N          8.0830   29.4600    7.1510 N.am   78  GLN78      -0.1963
    104  CA         8.1700   28.2680    7.9620 C.3    78  GLN78       0.1733
    105  C          7.7100   28.5460    9.3620 C.2    78  GLN78       0.2616
    106  O          7.7110   29.6600    9.7300 O.2    78  GLN78      -0.2715
    107  CB         9.5940   27.8780    8.0680 C.3    78  GLN78       0.0408
    108  CG         9.7020   26.4350    8.4620 C.3    78  GLN78       0.0908
    109  CD        11.1020   25.9910    8.3410 C.2    78  GLN78       0.2608
    110  OE1       12.0520   26.6520    8.8750 O.2    78  GLN78      -0.2717
    111  NE2       11.2910   24.9180    7.5990 N.am   78  GLN78      -0.0878
    112  N          7.2800   27.5100   10.0890 N.am   79  ASP79      -0.1971
    113  CA         6.9720   27.6260   11.5350 C.3    79  ASP79       0.1709
    114  C          8.1750   27.2340   12.4210 C.2    79  ASP79       0.2293
    115  O          9.1820   26.6680   11.9470 O.2    79  ASP79      -0.2864
    116  CB         5.7370   26.8470   11.9620 C.3    79  ASP79       0.1436
    117  CG         5.9170   25.3410   11.8900 C.2    79  ASP79       0.3671
    118  OD1        6.9510   24.8300   12.3300 O.co2  79  ASP79      -0.2456
    119  OD2        5.0350   24.6110   11.3860 O.co2  79  ASP79      -0.2456
    120  N          9.3770   23.4980   12.7680 N.3    82  LYS82      -0.1245
    121  CA        10.2950   23.0890   11.6860 C.3    82  LYS82       0.1561
    122  C         11.6850   23.7410   11.8210 C.2    82  LYS82       0.2260
    123  O         12.7160   23.0860   11.5860 O.2    82  LYS82      -0.2867
    124  CB         9.6720   23.3570   10.3100 C.3    82  LYS82       0.0271
    125  CG         8.5760   22.2970    9.9500 C.3    82  LYS82       0.0035
    126  CD         7.8570   22.5300    8.5940 C.3    82  LYS82       0.0206
    127  CE         6.3090   22.3690    8.7610 C.3    82  LYS82       0.1093
    128  NZ         5.4630   22.9500    7.6120 N.3    82  LYS82      -0.1314
    129  N          4.1260   25.4160   16.3050 N.3   124  GLN124     -0.1245
    130  CA         3.4130   25.3960   15.0720 C.3   124  GLN124      0.1566
    131  C          2.6190   26.6720   14.7840 C.2   124  GLN124      0.2260
    132  O          2.3020   26.8920   13.5990 O.2   124  GLN124     -0.2867
    133  CB         2.5390   24.1340   14.9400 C.3   124  GLN124      0.0367
    134  CG         3.2550   22.7260   15.4610 C.3   124  GLN124      0.0905
    135  CD         3.7980   22.7050   16.9840 C.2   124  GLN124      0.2608
    136  OE1        3.1300   23.0150   17.9300 O.2   124  GLN124     -0.2717
    137  NE2        5.0300   22.2980   17.1360 N.am  124  GLN124     -0.0878
    138  N          5.4110   31.7570   13.3630 N.3   127  LEU127     -0.1245
    139  CA         5.8800   31.6450   12.0050 C.3   127  LEU127      0.1561
    140  C          7.0240   32.6130   11.7580 C.2   127  LEU127      0.2260
    141  O          7.0160   33.7320   12.3130 O.2   127  LEU127     -0.2867
    142  CB         4.7150   31.8990   11.0860 C.3   127  LEU127      0.0270
    143  CG         3.5260   30.9510   11.1840 C.3   127  LEU127      0.0019
    144  CD1        2.6580   31.3300   10.0290 C.3   127  LEU127      0.0001
    145  CD2        3.8470   29.5380   11.1020 C.3   127  LEU127      0.0001
    146  N          0.4890   33.2620   14.8570 N.3   137  ALA137     -0.1231
    147  CA        -0.6290   32.8140   14.0140 C.3   137  ALA137      0.1694
    148  C         -1.8250   32.3400   14.8370 C.2   137  ALA137      0.2592
    149  O         -1.6540   31.9200   15.9780 O.2   137  ALA137     -0.2718
    150  CB        -0.1380   31.7040   13.1070 C.3   137  ALA137      0.0304
    151  N         -3.0160   32.4250   14.2760 N.am  138  ASP138     -0.1974
    152  CA        -4.2860   32.0470   14.9400 C.3   138  ASP138      0.1709
    153  C         -4.6710   32.7970   16.2140 C.2   138  ASP138      0.2293
    154  O         -5.4220   32.3440   17.0420 O.2   138  ASP138     -0.2864
    155  CB        -4.3640   30.5470   15.1630 C.3   138  ASP138      0.1436
    156  CG        -4.2790   29.7830   13.8520 C.2   138  ASP138      0.3671
    157  OD1       -4.1880   30.4070   12.7140 O.co2 138  ASP138     -0.2456
    158  OD2       -4.2540   28.5390   13.8810 O.co2 138  ASP138     -0.2456
@<TRIPOS>BOND
     1   102   101   ar
     2   102   100   ar
     3   101    99   ar
     4   100    98   ar
     5    83    81   ar
     6    83    84   ar
     7    81    79   ar
     8    84    82   ar
     9    99    98   ar
    10    79    78    1
    11    79    80   ar
    12    82    80   ar
    13    98    97    1
    14    78    75    1
    15    33    34    1
    16     1     2    1
    17    34    35    1
    18    34    37    1
    19     6     8    1
    20     6     5    1
    21    35    36    2
    22    97    94    1
    23     2     5    1
    24     2     3    1
    25    77    76    2
    26    75    74    1
    27    75    76    1
    28    57    56    2
    29    29    28    2
    30    74    67   am
    31    28    27    1
    32    76    85   am
    33     5     7    1
    34    94    93    1
    35    94    95    1
    36     3     4    2
    37     3     9   am
    38    56    65   am
    39    56    55    1
    40    66    67    1
    41    66    65    1
    42    66    69    1
    43    96    95    2
    44    67    68    2
    45    88    87    2
    46    38    39    1
    47    54    55    1
    48    87    93   am
    49    87    86    1
    50    85    86    1
    51     9    10    1
    52    27    26    1
    53    27    30    1
    54    95   103   am
    55    86    89    1
    56    55    58    1
    57    70    69    1
    58    70    71    1
    59    40    39    1
    60    40    41    2
    61    39    42    1
    62    31    30    1
    63    12    11    2
    64    30    32    1
    65    10    11    1
    66   103   104    1
    67    72    71   ar
    68    58    59    1
    69    71    73   ar
    70    89    90    1
    71    11    13   am
    72   111   109   am
    73   128   127    1
    74    21    19   ar
    75    90    91    1
    76    90    92    1
    77    42    43    1
    78   104   107    1
    79   104   105    1
    80    43    44    1
    81   107   108    1
    82   109   108    1
    83   109   110    2
    84    59    60   ar
    85    59    61   ar
    86    19    18    1
    87    19    20   ar
    88   126   127    1
    89   126   125    1
    90    13    14    1
    91    60    62   ar
    92    18    17    1
    93   105   106    2
    94   105   112   am
    95    14    17    1
    96    14    15    1
    97    44    45    1
    98    45    46    1
    99    61    63   ar
   100    52    51    1
   101    62    64   ar
   102   125   124    1
   103   144   143    1
   104   112   113    1
   105   124   121    1
   106    15    22   am
   107    15    16    2
   108    63    64   ar
   109    22    23    1
   110    49    48    1
   111    49    50    2
   112   142   143    1
   113   142   139    1
   114   145   143    1
   115    51    48    1
   116    51    53    1
   117    48    47    1
   118   119   117   ar
   119   113   116    1
   120   113   114    1
   121   123   122    2
   122   121   122    1
   123   121   120    1
   124   140   139    1
   125   140   141    2
   126    23    24    1
   127   117   116    1
   128   117   118   ar
   129   115   114    2
   130   139   138    1
   131    25    24    2
   132   157   156   ar
   133   150   147    1
   134   132   131    2
   135   156   158   ar
   136   156   155    1
   137   147   148    1
   138   147   146    1
   139   151   148   am
   140   151   152    1
   141   131   130    1
   142   148   149    2
   143   133   130    1
   144   133   134    1
   145   152   155    1
   146   152   153    1
   147   130   129    1
   148   134   135    1
   149   153   154    2
   150   135   137   am
   151   135   136    2
