@<TRIPOS>MOLECULE
tmp/1h0wA00.pdb
 141 135 0 0 0
SMALL
GASTEIGER

@<TRIPOS>ATOM
      1  N         -0.4380   23.5530    3.8560 N.3    10  ILE10      -0.1231
      2  CA         0.5900   23.9820    4.7890 C.3    10  ILE10       0.1692
      3  C          0.6280   23.0690    5.9840 C.2    10  ILE10       0.2593
      4  O          1.6880   22.8320    6.5530 O.2    10  ILE10      -0.2718
      5  CB         0.2940   25.3830    5.3250 C.3    10  ILE10       0.0266
      6  CG1        0.7250   26.4490    4.3460 C.3    10  ILE10       0.0019
      7  CG2        1.0300   25.5900    6.6280 C.3    10  ILE10       0.0020
      8  CD1        0.5290   27.8170    4.8750 C.3    10  ILE10       0.0001
      9  N         -0.5570   22.6250    6.3930 N.am   11  GLY11      -0.1942
     10  CA        -0.7250   21.7750    7.5570 C.3    11  GLY11       0.2014
     11  C         -2.1420   21.8600    8.1010 C.2    11  GLY11       0.2639
     12  O         -2.9490   22.6560    7.6410 O.2    11  GLY11      -0.2714
     13  N         -2.4410   21.0390    9.0980 N.am   12  GLU12      -0.1963
     14  CA        -3.7720   20.9890    9.6890 C.3    12  GLU12       0.1733
     15  C         -3.6690   21.5950   11.0640 C.2    12  GLU12       0.2616
     16  O         -2.8240   21.1990   11.8560 O.2    12  GLU12      -0.2715
     17  CB        -4.2680   19.5450    9.8020 C.3    12  GLU12       0.0429
     18  CG        -3.6720   18.5770    8.7880 C.3    12  GLU12       0.1163
     19  CD        -4.4210   17.2540    8.7380 C.2    12  GLU12       0.3649
     20  OE1       -4.3590   16.5140    9.7400 O.co2  12  GLU12      -0.2457
     21  OE2       -5.0670   16.9560    7.6990 O.co2  12  GLU12      -0.2457
     22  N         -4.5280   22.5570   11.3550 N.am   13  GLY13      -0.1955
     23  CA        -4.4620   23.2460   12.6230 C.3    13  GLY13       0.1869
     24  C         -5.7160   23.1450   13.4620 C.2    13  GLY13       0.2309
     25  O         -6.6590   22.4150   13.1540 O.2    13  GLY13      -0.2863
     26  N         -5.0050   24.7720    6.8170 N.3    18  VAL18      -0.1245
     27  CA        -4.3660   26.0270    6.4500 C.3    18  VAL18       0.1561
     28  C         -3.7200   25.8160    5.1150 C.2    18  VAL18       0.2260
     29  O         -2.9390   24.8870    4.9500 O.2    18  VAL18      -0.2867
     30  CB        -3.2780   26.4440    7.4510 C.3    18  VAL18       0.0252
     31  CG1       -2.6160   27.7230    6.9930 C.3    18  VAL18       0.0019
     32  CG2       -3.8830   26.6310    8.8340 C.3    18  VAL18       0.0019
     33  N         -2.0340   33.0330    3.3780 N.3    31  ALA31      -0.1245
     34  CA        -2.3450   31.8360    4.1090 C.3    31  ALA31       0.1562
     35  C         -3.8510   31.8550    4.3220 C.2    31  ALA31       0.2260
     36  O         -4.3950   32.8510    4.8080 O.2    31  ALA31      -0.2867
     37  CB        -1.5880   31.8220    5.4410 C.3    31  ALA31       0.0290
     38  N         -7.1870   30.1150    6.0430 N.3    33  LYS33      -0.1245
     39  CA        -7.6830   29.1660    7.0260 C.3    33  LYS33       0.1561
     40  C         -9.1850   28.9130    6.8550 C.2    33  LYS33       0.2260
     41  O         -9.9780   29.8380    6.8630 O.2    33  LYS33      -0.2867
     42  CB        -7.3550   29.6500    8.4440 C.3    33  LYS33       0.0271
     43  CG        -5.8420   29.6020    8.7420 C.3    33  LYS33       0.0035
     44  CD        -5.4510   30.0830   10.1430 C.3    33  LYS33       0.0206
     45  CE        -3.9280   30.3040   10.2690 C.3    33  LYS33       0.1093
     46  NZ        -3.5300   30.3490   11.7080 N.3    33  LYS33      -0.1314
     47  N          0.6350   38.5880   13.3520 N.3    57  VAL57      -0.1245
     48  CA         0.3360   38.1970   11.9830 C.3    57  VAL57       0.1561
     49  C         -0.9340   38.8620   11.5290 C.2    57  VAL57       0.2260
     50  O         -1.9860   38.6490   12.1290 O.2    57  VAL57      -0.2867
     51  CB         0.1290   36.7020   11.8460 C.3    57  VAL57       0.0252
     52  CG1       -0.2600   36.3700   10.4030 C.3    57  VAL57       0.0019
     53  CG2        1.4130   35.9570   12.2420 C.3    57  VAL57       0.0019
     54  N         -4.8250   35.5110    5.9630 N.3    73  PHE73      -0.1227
     55  CA        -3.7100   36.1020    6.7110 C.3    73  PHE73       0.1736
     56  C         -2.4970   36.3360    5.8340 C.2    73  PHE73       0.2595
     57  O         -2.2580   35.6110    4.8620 O.2    73  PHE73      -0.2718
     58  CB        -3.2080   35.1630    7.8100 C.3    73  PHE73       0.0547
     59  CG        -4.1490   34.9880    8.9660 C.ar   73  PHE73      -0.0202
     60  CD1       -4.8360   33.8030    9.1280 C.ar   73  PHE73      -0.0042
     61  CD2       -4.3100   35.9900    9.9150 C.ar   73  PHE73      -0.0042
     62  CE1       -5.6840   33.6110   10.2190 C.ar   73  PHE73      -0.0003
     63  CE2       -5.1580   35.8170   10.9890 C.ar   73  PHE73      -0.0003
     64  CZ        -5.8680   34.6230   11.1310 C.ar   73  PHE73      -0.0000
     65  N         -1.7720   37.3890    6.2080 N.am   74  GLU74      -0.1965
     66  CA        -0.4170   37.6490    5.7990 C.3    74  GLU74       0.1733
     67  C          0.3450   36.3110    5.9200 C.2    74  GLU74       0.2616
     68  O          0.1980   35.5570    6.9000 O.2    74  GLU74      -0.2715
     69  CB         0.1640   38.6660    6.7920 C.3    74  GLU74       0.0429
     70  CG         1.6350   38.9480    6.6240 C.3    74  GLU74       0.1163
     71  CD         2.2920   39.6370    7.8160 C.2    74  GLU74       0.3649
     72  OE1        3.5130   39.8380    7.7420 O.co2  74  GLU74      -0.2457
     73  OE2        1.6460   39.9580    8.8270 O.co2  74  GLU74      -0.2457
     74  N          1.1490   36.0210    4.9100 N.am   75  PHE75      -0.1960
     75  CA         1.9340   34.7900    4.8330 C.3    75  PHE75       0.1771
     76  C          3.4140   34.9950    5.1690 C.2    75  PHE75       0.2619
     77  O          4.0360   35.9310    4.6620 O.2    75  PHE75      -0.2715
     78  CB         1.8370   34.2770    3.4080 C.3    75  PHE75       0.0574
     79  CG         2.5960   33.0180    3.1450 C.ar   75  PHE75      -0.0200
     80  CD1        2.0360   31.7810    3.4120 C.ar   75  PHE75      -0.0042
     81  CD2        3.8470   33.0680    2.5830 C.ar   75  PHE75      -0.0042
     82  CE1        2.7250   30.6200    3.1340 C.ar   75  PHE75      -0.0003
     83  CE2        4.5490   31.9200    2.3480 C.ar   75  PHE75      -0.0003
     84  CZ         3.9710   30.6880    2.6150 C.ar   75  PHE75      -0.0000
     85  N          3.9640   34.1070    5.9980 N.am   76  LEU76      -0.1963
     86  CA         5.3800   34.0890    6.3020 C.3    76  LEU76       0.1728
     87  C          5.9090   32.6880    5.9230 C.2    76  LEU76       0.2616
     88  O          5.1530   31.7160    5.9420 O.2    76  LEU76      -0.2715
     89  CB         5.6230   34.4410    7.7810 C.3    76  LEU76       0.0311
     90  CG         5.2690   35.8990    8.1810 C.3    76  LEU76       0.0022
     91  CD1        3.8970   35.9600    8.7860 C.3    76  LEU76       0.0001
     92  CD2        6.2600   36.5640    9.1600 C.3    76  LEU76       0.0001
     93  N          7.2070   32.5430    5.6900 N.am   77  HIS77      -0.1959
     94  CA         7.7330   31.2670    5.2080 C.3    77  HIS77       0.1787
     95  C          8.2760   30.2990    6.1950 C.2    77  HIS77       0.2620
     96  O          8.8200   29.2900    5.7950 O.2    77  HIS77      -0.2715
     97  CB         8.8390   31.4740    4.1880 C.3    77  HIS77       0.0785
     98  CG         8.3920   32.1210    2.9240 C.ar   77  HIS77       0.0821
     99  ND1        8.1180   33.4680    2.8430 N.ar   77  HIS77      -0.2267
    100  CD2        8.2230   31.6200    1.6770 C.ar   77  HIS77       0.1154
    101  CE1        7.8020   33.7720    1.5960 C.ar   77  HIS77       0.1986
    102  NE2        7.8630   32.6710    0.8670 N.ar   77  HIS77      -0.2212
    103  N          8.1420   30.5370    7.4840 N.am   78  GLN78      -0.1963
    104  CA         8.5690   29.5060    8.3890 C.3    78  GLN78       0.1733
    105  C          8.0330   29.6400    9.8100 C.2    78  GLN78       0.2616
    106  O          7.9960   30.7200   10.3480 O.2    78  GLN78      -0.2715
    107  CB        10.0750   29.5300    8.3670 C.3    78  GLN78       0.0408
    108  CG        10.6510   28.8620    9.5030 C.3    78  GLN78       0.0908
    109  CD        11.4060   27.7190    9.0830 C.2    78  GLN78       0.2608
    110  OE1       10.8450   26.8220    8.4590 O.2    78  GLN78      -0.2717
    111  NE2       12.6940   27.7260    9.3660 N.am   78  GLN78      -0.0878
    112  N          7.5990   28.5340   10.4140 N.am   79  ASP79      -0.1971
    113  CA         7.1540   28.5600   11.8110 C.3    79  ASP79       0.1709
    114  C          8.3420   28.2120   12.7150 C.2    79  ASP79       0.2293
    115  O          9.3390   27.6140   12.2640 O.2    79  ASP79      -0.2864
    116  CB         5.9420   27.6260   12.0420 C.3    79  ASP79       0.1436
    117  CG         6.3190   26.1660   12.0860 C.2    79  ASP79       0.3671
    118  OD1        7.0750   25.7440   12.9840 O.co2  79  ASP79      -0.2456
    119  OD2        5.9170   25.3570   11.2410 O.co2  79  ASP79      -0.2456
    120  N          4.4220   26.3410   16.8340 N.3   124  GLN124     -0.1245
    121  CA         3.7920   26.2620   15.5190 C.3   124  GLN124      0.1566
    122  C          3.0240   27.5130   15.1450 C.2   124  GLN124      0.2260
    123  O          2.8480   27.7510   13.9780 O.2   124  GLN124     -0.2867
    124  CB         2.8970   25.0470   15.3890 C.3   124  GLN124      0.0367
    125  CG         3.6580   23.7350   15.3710 C.3   124  GLN124      0.0905
    126  CD         3.9290   23.1470   16.7770 C.2   124  GLN124      0.2608
    127  OE1        3.7620   23.8040   17.8070 O.2   124  GLN124     -0.2717
    128  NE2        4.3470   21.8870   16.7990 N.am  124  GLN124     -0.0878
    129  N          5.6770   32.7270   13.8840 N.3   127  LEU127     -0.1245
    130  CA         6.1580   32.6780   12.5210 C.3   127  LEU127      0.1561
    131  C          7.2710   33.6880   12.3270 C.2   127  LEU127      0.2260
    132  O          7.1700   34.8360   12.7760 O.2   127  LEU127     -0.2867
    133  CB         5.0170   32.9440   11.5190 C.3   127  LEU127      0.0270
    134  CG         3.7220   32.1320   11.6180 C.3   127  LEU127      0.0019
    135  CD1        2.6330   32.7500   10.7110 C.3   127  LEU127      0.0001
    136  CD2        3.8920   30.6610   11.2590 C.3   127  LEU127      0.0001
    137  N          0.5590   34.3260   15.5090 N.3   137  ALA137     -0.1245
    138  CA        -0.5950   34.0120   14.6440 C.3   137  ALA137      0.1562
    139  C         -1.7320   33.4610   15.4810 C.2   137  ALA137      0.2260
    140  O         -1.4870   32.9240   16.5350 O.2   137  ALA137     -0.2867
    141  CB        -0.2170   32.9870   13.6090 C.3   137  ALA137      0.0290
@<TRIPOS>BOND
     1   102   101   ar
     2   102   100   ar
     3   101    99   ar
     4   100    98   ar
     5    83    81   ar
     6    83    84   ar
     7    81    79   ar
     8    84    82   ar
     9    99    98   ar
    10    98    97    1
    11    82    80   ar
    12    79    78    1
    13    79    80   ar
    14    33    34    1
    15    78    75    1
    16     1     2    1
    17    34    35    1
    18    34    37    1
    19    97    94    1
    20    35    36    2
    21     6     8    1
    22     6     5    1
    23    77    76    2
    24     2     5    1
    25     2     3    1
    26    75    74    1
    27    75    76    1
    28    57    56    2
    29    74    67   am
    30    29    28    2
    31    28    27    1
    32    76    85   am
    33    94    93    1
    34    94    95    1
    35     5     7    1
    36    93    87   am
    37    96    95    2
    38    66    67    1
    39    66    65    1
    40    66    69    1
    41    56    65   am
    42    56    55    1
    43    67    68    2
    44    87    88    2
    45    87    86    1
    46    54    55    1
    47     3     9   am
    48     3     4    2
    49    85    86    1
    50    38    39    1
    51    95   103   am
    52    86    89    1
    53     9    10    1
    54    27    26    1
    55    27    30    1
    56    70    69    1
    57    70    71    1
    58    55    58    1
    59    40    41    2
    60    40    39    1
    61    31    30    1
    62    39    42    1
    63    30    32    1
    64   103   104    1
    65    10    11    1
    66    12    11    2
    67    21    19   ar
    68    72    71   ar
    69    89    90    1
    70    58    59    1
    71    71    73   ar
    72    11    13   am
    73    90    91    1
    74    90    92    1
    75   107   104    1
    76   107   108    1
    77   104   105    1
    78    42    43    1
    79   110   109    2
    80    19    18    1
    81    19    20   ar
    82    43    44    1
    83    18    17    1
    84    59    60   ar
    85    59    61   ar
    86   109   111   am
    87   109   108    1
    88    13    14    1
    89    60    62   ar
    90    14    17    1
    91    14    15    1
    92   105   106    2
    93   105   112   am
    94    61    63   ar
    95    44    45    1
    96    62    64   ar
    97    45    46    1
    98    52    51    1
    99   112   113    1
   100   135   134    1
   101    63    64   ar
   102    15    22   am
   103    15    16    2
   104   119   117   ar
   105   136   134    1
   106    22    23    1
   107   133   134    1
   108   133   130    1
   109    49    48    1
   110    49    50    2
   111   113   116    1
   112   113   114    1
   113    51    48    1
   114    51    53    1
   115    48    47    1
   116   116   117    1
   117   117   118   ar
   118   115   114    2
   119   131   130    1
   120   131   132    2
   121   130   129    1
   122    23    24    1
   123    25    24    2
   124   141   138    1
   125   123   122    2
   126   138   139    1
   127   138   137    1
   128   122   121    1
   129   125   124    1
   130   125   126    1
   131   124   121    1
   132   139   140    2
   133   121   120    1
   134   126   128   am
   135   126   127    2
