@<TRIPOS>MOLECULE
tmp/1h12A00.pdb
 84 80 0 0 0
SMALL
GASTEIGER

@<TRIPOS>ATOM
      1  N          2.4920   -0.6600   13.0800 N.3   283  TRP283     -0.1241
      2  CA         2.4030    0.5870   12.3430 C.3   283  TRP283      0.1605
      3  C          3.3600    1.6370   12.9010 C.2   283  TRP283      0.2264
      4  O          3.8860    2.4590   12.1530 O.2   283  TRP283     -0.2867
      5  CB         1.0320    1.2390   12.3950 C.3   283  TRP283      0.0550
      6  CG        -0.1270    0.5360   11.7460 C.ar  283  TRP283      0.0003
      7  CD1       -0.1490   -0.6330   11.0280 C.ar  283  TRP283      0.0946
      8  CD2       -1.4760    0.9960   11.7970 C.ar  283  TRP283      0.0152
      9  NE1       -1.4280   -0.8980   10.6390 N.ar  283  TRP283     -0.2442
     10  CE2       -2.2580    0.0820   11.1170 C.ar  283  TRP283      0.0810
     11  CE3       -2.0920    2.1200   12.3610 C.ar  283  TRP283      0.0012
     12  CZ2       -3.6220    0.2560   11.0130 C.ar  283  TRP283      0.0191
     13  CZ3       -3.4130    2.2970   12.2500 C.ar  283  TRP283      0.0001
     14  CH2       -4.1800    1.3640   11.6030 C.ar  283  TRP283      0.0015
     15  N         -3.9680   -2.5830    6.2480 N.3   327  GLN327     -0.1245
     16  CA        -3.6350   -2.4180    7.6490 C.3   327  GLN327      0.1566
     17  C         -2.8600   -3.5560    8.2480 C.2   327  GLN327      0.2260
     18  O         -2.1600   -3.3290    9.2650 O.2   327  GLN327     -0.2867
     19  CB        -4.9390   -2.2250    8.4500 C.3   327  GLN327      0.0367
     20  CG        -5.6190   -0.8980    8.1070 C.3   327  GLN327      0.0905
     21  CD        -6.7560   -0.4880    9.0310 C.2   327  GLN327      0.2608
     22  OE1       -7.3350   -1.2840    9.7340 O.2   327  GLN327     -0.2717
     23  NE2       -7.0400    0.7990    9.0360 N.am  327  GLN327     -0.0878
     24  N         -7.7190   -7.0070    6.1900 N.3   337  ARG337     -0.1231
     25  CA        -8.1900   -6.2180    7.3430 C.3   337  ARG337      0.1694
     26  C         -8.3550   -4.7480    7.0360 C.2   337  ARG337      0.2593
     27  O         -8.2670   -3.9050    7.9420 O.2   337  ARG337     -0.2718
     28  CB        -7.2830   -6.4460    8.5520 C.3   337  ARG337      0.0321
     29  CG        -7.1690   -7.8860    8.9710 C.3   337  ARG337      0.0489
     30  CD        -8.4630   -8.4260    9.4020 C.3   337  ARG337      0.2205
     31  NE        -8.3150   -9.7810    9.9230 N.pl3 337  ARG337     -0.0865
     32  CZ        -8.1380  -10.0870   11.1810 C.cat 337  ARG337      0.5346
     33  NH1       -7.9190   -9.0820   12.1150 N.pl3 337  ARG337      0.1354
     34  NH2       -8.1160  -11.4240   11.4500 N.pl3 337  ARG337      0.1354
     35  N         -8.5680   -4.4220    5.7580 N.am  338  GLY338     -0.1942
     36  CA        -8.9360   -3.0970    5.3520 C.3   338  GLY338      0.2014
     37  C         -7.8040   -2.2750    4.7870 C.2   338  GLY338      0.2639
     38  O         -6.6350   -2.4520    5.1710 O.2   338  GLY338     -0.2714
     39  N         -8.1520   -1.3640    3.9130 N.am  339  CYS339     -0.1967
     40  CA        -7.2460   -0.3700    3.4500 C.3   339  CYS339      0.1712
     41  C         -6.7000    0.4570    4.6030 C.2   339  CYS339      0.2296
     42  O         -7.3830    0.7160    5.5790 O.2   339  CYS339     -0.2864
     43  CB        -7.8730    0.5750    2.4190 C.3   339  CYS339      0.0983
     44  SG        -8.2150   -0.1840    0.8130 S.3   339  CYS339     -0.0798
     45  N         -5.9310    3.1440    7.0890 N.3   341  GLY341     -0.1210
     46  CA        -6.6430    4.3390    7.5680 C.3   341  GLY341      0.1956
     47  C         -5.7180    5.4850    7.9060 C.2   341  GLY341      0.2611
     48  O         -4.5370    5.4870    7.5860 O.2   341  GLY341     -0.2717
     49  N         -6.2930    6.4760    8.5360 N.am  342  GLU342     -0.1979
     50  CA        -5.5840    7.7010    8.7380 C.3   342  GLU342      0.1602
     51  C         -4.3840    7.5340    9.6520 C.2   342  GLU342      0.2287
     52  O         -3.3610    8.1840    9.4680 O.2   342  GLU342     -0.2864
     53  CB        -6.4790    8.8090    9.2820 C.3   342  GLU342      0.0415
     54  CG        -7.7160    9.1280    8.4380 C.3   342  GLU342      0.1163
     55  CD        -8.9370    8.3810    8.8170 C.2   342  GLU342      0.3649
     56  OE1       -8.8450    7.3420    9.4980 O.co2 342  GLU342     -0.2457
     57  OE2      -10.0400    8.8610    8.4450 O.co2 342  GLU342     -0.2457
     58  N        -12.8600   10.9060   12.1090 N.3   375  THR375     -0.1218
     59  CA       -14.1630   10.9460   12.7460 C.3   375  THR375      0.1862
     60  C        -14.7180    9.5150   12.7730 C.2   375  THR375      0.2287
     61  O        -14.1110    8.5880   12.2390 O.2   375  THR375     -0.2866
     62  CB       -15.1470   11.8620   11.9980 C.3   375  THR375      0.1770
     63  OG1      -15.3030   11.3680   10.6550 O.3   375  THR375     -0.2211
     64  CG2      -14.5980   13.2780   11.9280 C.3   375  THR375      0.0375
     65  N        -13.9160    4.5370   14.3620 N.3   378  TYR378     -0.1241
     66  CA       -12.5600    4.0670   14.4320 C.3   378  TYR378      0.1605
     67  C        -11.5690    5.1840   14.7310 C.2   378  TYR378      0.2264
     68  O        -10.3540    5.0130   14.5750 O.2   378  TYR378     -0.2867
     69  CB       -12.1750    3.2750   13.1550 C.3   378  TYR378      0.0534
     70  CG       -12.9480    1.9920   13.0320 C.ar  378  TYR378     -0.0201
     71  CD1      -12.6250    0.8990   13.7860 C.ar  378  TYR378     -0.0009
     72  CD2      -14.0580    1.9250   12.2280 C.ar  378  TYR378     -0.0009
     73  CE1      -13.3910   -0.3300   13.6880 C.ar  378  TYR378      0.0417
     74  CE2      -14.8090    0.7050   12.1050 C.ar  378  TYR378      0.0417
     75  CZ       -14.4490   -0.3680   12.8430 C.ar  378  TYR378      0.1957
     76  OH       -15.1960   -1.5510   12.7500 O.3   378  TYR378     -0.2866
     77  N         -6.8670    5.8530   14.9140 N.3   382  ASN382     -0.1240
     78  CA        -6.5520    6.7330   13.7890 C.3   382  ASN382      0.1653
     79  C         -6.3180    8.1680   14.2050 C.2   382  ASN382      0.2266
     80  O         -5.3670    8.8010   13.7580 O.2   382  ASN382     -0.2867
     81  CB        -7.6330    6.6460   12.7270 C.3   382  ASN382      0.1155
     82  CG        -7.6140    5.2980   11.9820 C.2   382  ASN382      0.2627
     83  OD1       -8.7150    4.6640   11.8230 O.2   382  ASN382     -0.2716
     84  ND2       -6.5240    4.8880   11.5270 N.am  382  ASN382     -0.0877
@<TRIPOS>BOND
     1    44    43    1
     2    43    40    1
     3    40    39    1
     4    40    41    1
     5    39    37   am
     6    41    42    2
     7    37    38    2
     8    37    36    1
     9    36    35    1
    10    35    26   am
    11    24    25    1
    12    15    16    1
    13    26    25    1
    14    26    27    2
    15    45    46    1
    16    25    28    1
    17    46    47    1
    18    48    47    2
    19    16    17    1
    20    16    19    1
    21    47    49   am
    22    20    19    1
    23    20    21    1
    24    17    18    2
    25    54    55    1
    26    54    53    1
    27    57    55   ar
    28    49    50    1
    29    28    29    1
    30    50    53    1
    31    50    51    1
    32    55    56   ar
    33    29    30    1
    34    21    23   am
    35    21    22    2
    36    30    31    1
    37    52    51    2
    38    31    32    2
    39     9     7   ar
    40     9    10   ar
    41    63    62    1
    42    12    10   ar
    43    12    14   ar
    44     7     6   ar
    45    10     8   ar
    46    32    34    1
    47    32    33    1
    48    84    82   am
    49    14    13   ar
    50     6     8   ar
    51     6     5    1
    52     8    11   ar
    53    83    82    2
    54    64    62    1
    55    82    81    1
    56    62    59    1
    57    74    72   ar
    58    74    75   ar
    59    58    59    1
    60     4     3    2
    61    72    70   ar
    62    61    60    2
    63    13    11   ar
    64     2     5    1
    65     2     3    1
    66     2     1    1
    67    81    78    1
    68    59    60    1
    69    76    75    1
    70    75    73   ar
    71    70    69    1
    72    70    71   ar
    73    69    66    1
    74    73    71   ar
    75    80    79    2
    76    78    79    1
    77    78    77    1
    78    65    66    1
    79    66    67    1
    80    68    67    2
