@<TRIPOS>MOLECULE
tmp/1h16A00.pdb
 121 116 0 0 0
SMALL
GASTEIGER

@<TRIPOS>ATOM
      1  N         94.0920  -79.0390  -13.6650 N.3   116  LYS116     -0.1231
      2  CA        94.3840  -79.6170  -14.9680 C.3   116  LYS116      0.1693
      3  C         94.5850  -78.5520  -16.0360 C.2   116  LYS116      0.2591
      4  O         95.4090  -78.7220  -16.9350 O.2   116  LYS116     -0.2718
      5  CB        93.2710  -80.5780  -15.3870 C.3   116  LYS116      0.0285
      6  CG        93.2940  -81.8800  -14.5900 C.3   116  LYS116      0.0035
      7  CD        92.1650  -82.8020  -15.0310 C.3   116  LYS116      0.0206
      8  CE        92.0930  -84.0470  -14.1410 C.3   116  LYS116      0.1093
      9  NZ        93.2690  -84.9540  -14.3080 N.3   116  LYS116     -0.1314
     10  N         93.8540  -77.4400  -15.9410 N.am  117  MET117     -0.1979
     11  CA        94.0060  -76.3790  -16.9350 C.3   117  MET117      0.1605
     12  C         95.3910  -75.7410  -16.8100 C.2   117  MET117      0.2287
     13  O         96.0130  -75.3950  -17.8130 O.2   117  MET117     -0.2864
     14  CB        92.9230  -75.3010  -16.7520 C.3   117  MET117      0.0413
     15  CG        91.4850  -75.7620  -17.0470 C.3   117  MET117      0.0598
     16  SD        90.7560  -76.9020  -15.8270 S.3   117  MET117     -0.1393
     17  CE        90.6620  -78.4680  -16.8210 C.3   117  MET117      0.0692
     18  N         86.7910  -77.1640  -11.2940 N.3   145  ASN145     -0.1225
     19  CA        86.8150  -78.1100  -12.4070 C.3   145  ASN145      0.1785
     20  C         86.5980  -79.5450  -11.9310 C.2   145  ASN145      0.2597
     21  O         85.7910  -80.2740  -12.5130 O.2   145  ASN145     -0.2718
     22  CB        88.1660  -77.9710  -13.1300 C.3   145  ASN145      0.1169
     23  CG        88.4290  -79.0760  -14.1280 C.2   145  ASN145      0.2627
     24  OD1       89.3090  -79.9190  -13.9120 O.2   145  ASN145     -0.2716
     25  ND2       87.6910  -79.0720  -15.2320 N.am  145  ASN145     -0.0877
     26  N         87.2910  -79.9610  -10.8700 N.am  146  GLN146     -0.1979
     27  CA        87.1100  -81.3520  -10.4480 C.3   146  GLN146      0.1601
     28  C         85.7340  -81.6050   -9.8350 C.2   146  GLN146      0.2287
     29  O         85.1750  -82.6810  -10.0030 O.2   146  GLN146     -0.2864
     30  CB        88.2240  -81.7820   -9.4940 C.3   146  GLN146      0.0394
     31  CG        88.3150  -83.3020   -9.3430 C.3   146  GLN146      0.0908
     32  CD        88.4830  -83.9990  -10.6740 C.2   146  GLN146      0.2608
     33  OE1       89.4210  -83.7080  -11.4230 O.2   146  GLN146     -0.2717
     34  NE2       87.5660  -84.9280  -10.9860 N.am  146  GLN146     -0.0878
     35  N         83.4090  -82.1430  -12.8640 N.3   149  PHE149     -0.1227
     36  CA        83.5860  -83.4240  -13.5370 C.3   149  PHE149      0.1736
     37  C         83.2420  -84.6150  -12.6750 C.2   149  PHE149      0.2595
     38  O         82.9370  -85.6880  -13.1980 O.2   149  PHE149     -0.2718
     39  CB        84.9930  -83.5160  -14.1580 C.3   149  PHE149      0.0547
     40  CG        85.0830  -82.8250  -15.4930 C.ar  149  PHE149     -0.0202
     41  CD1       85.1680  -81.4370  -15.5810 C.ar  149  PHE149     -0.0042
     42  CD2       84.9880  -83.5540  -16.6710 C.ar  149  PHE149     -0.0042
     43  CE1       85.1500  -80.7890  -16.8240 C.ar  149  PHE149     -0.0003
     44  CE2       84.9700  -82.9260  -17.9140 C.ar  149  PHE149     -0.0003
     45  CZ        85.0500  -81.5410  -18.0000 C.ar  149  PHE149     -0.0000
     46  N         83.2420  -84.4320  -11.3600 N.am  150  ASP150     -0.1974
     47  CA        82.8520  -85.5280  -10.4700 C.3   150  ASP150      0.1709
     48  C         81.3440  -85.7470  -10.5160 C.2   150  ASP150      0.2293
     49  O         80.8630  -86.8420  -10.1970 O.2   150  ASP150     -0.2864
     50  CB        83.2000  -85.2070   -9.0150 C.3   150  ASP150      0.1436
     51  CG        84.6180  -85.5720   -8.6420 C.2   150  ASP150      0.3671
     52  OD1       84.9780  -85.3130   -7.4710 O.co2 150  ASP150     -0.2456
     53  OD2       85.3620  -86.1120   -9.4860 O.co2 150  ASP150     -0.2456
     54  N         79.1750  -84.5150  -13.3100 N.3   152  TYR152     -0.1227
     55  CA        78.6230  -84.5380  -14.6650 C.3   152  TYR152      0.1736
     56  C         78.0250  -85.9070  -14.9920 C.2   152  TYR152      0.2596
     57  O         78.3330  -86.9140  -14.3430 O.2   152  TYR152     -0.2718
     58  CB        79.7250  -84.2740  -15.6970 C.3   152  TYR152      0.0548
     59  CG        79.9470  -82.8450  -16.1490 C.ar  152  TYR152     -0.0200
     60  CD1       78.9840  -81.8520  -15.9610 C.ar  152  TYR152     -0.0009
     61  CD2       81.0740  -82.5400  -16.9100 C.ar  152  TYR152     -0.0009
     62  CE1       79.1420  -80.5740  -16.5390 C.ar  152  TYR152      0.0417
     63  CE2       81.2350  -81.2930  -17.4920 C.ar  152  TYR152      0.0417
     64  CZ        80.2720  -80.3240  -17.3070 C.ar  152  TYR152      0.1957
     65  OH        80.4200  -79.1060  -17.9220 O.3   152  TYR152     -0.2866
     66  N         77.1820  -85.9330  -16.0140 N.am  153  THR153     -0.1939
     67  CA        76.5750  -87.1830  -16.4690 C.3   153  THR153      0.2013
     68  C         77.2550  -87.6140  -17.7650 C.2   153  THR153      0.2484
     69  O         77.8930  -86.8110  -18.4510 O.2   153  THR153     -0.2729
     70  CB        75.0880  -86.9930  -16.8080 C.3   153  THR153      0.1807
     71  OG1       74.9630  -86.0390  -17.8740 O.3   153  THR153     -0.2208
     72  CG2       74.3170  -86.4920  -15.6110 C.3   153  THR153      0.0379
     73  N         77.1180  -88.8970  -18.1240 N.am  154  PRO154     -0.2726
     74  CA        77.7250  -89.3820  -19.3660 C.3   154  PRO154      0.1402
     75  C         77.1130  -88.6220  -20.5530 C.2   154  PRO154      0.2269
     76  O         77.7990  -88.3680  -21.5420 O.2   154  PRO154     -0.2865
     77  CB        77.3450  -90.8720  -19.3900 C.3   154  PRO154      0.0296
     78  CG        77.2600  -91.2380  -17.9330 C.3   154  PRO154      0.0237
     79  CD        76.5990  -90.0060  -17.2970 C.3   154  PRO154      0.0939
     80  N         78.7500  -85.2800  -20.9590 N.3   157  LEU157     -0.1245
     81  CA        80.0820  -85.4760  -21.5150 C.3   157  LEU157      0.1561
     82  C         80.0000  -85.7710  -23.0190 C.2   157  LEU157      0.2260
     83  O         80.8390  -85.3110  -23.7950 O.2   157  LEU157     -0.2867
     84  CB        80.8060  -86.6040  -20.7700 C.3   157  LEU157      0.0270
     85  CG        81.1990  -86.1960  -19.3450 C.3   157  LEU157      0.0019
     86  CD1       81.6960  -87.4090  -18.5750 C.3   157  LEU157      0.0001
     87  CD2       82.2670  -85.1220  -19.3990 C.3   157  LEU157      0.0001
     88  N         79.4470  -82.5550  -24.8190 N.3   160  ARG160     -0.1231
     89  CA        80.6610  -81.7480  -24.7990 C.3   160  ARG160      0.1694
     90  C         81.6040  -82.2400  -25.8960 C.2   160  ARG160      0.2591
     91  O         82.1640  -81.4480  -26.6580 O.2   160  ARG160     -0.2718
     92  CB        81.3240  -81.8750  -23.4160 C.3   160  ARG160      0.0321
     93  CG        82.4860  -80.9090  -23.1350 C.3   160  ARG160      0.0489
     94  CD        82.9900  -81.2130  -21.7290 C.3   160  ARG160      0.2205
     95  NE        83.8810  -80.2010  -21.1390 N.pl3 160  ARG160     -0.0865
     96  CZ        85.1750  -80.0630  -21.4210 C.cat 160  ARG160      0.5346
     97  NH1       85.7820  -80.8540  -22.3120 N.pl3 160  ARG160      0.1354
     98  NH2       85.8920  -79.1590  -20.7460 N.pl3 160  ARG160      0.1354
     99  N         81.7530  -83.5600  -25.9920 N.am  161  LYS161     -0.1980
    100  CA        82.6440  -84.1640  -26.9780 C.3   161  LYS161      0.1596
    101  C         82.1700  -83.9510  -28.4140 C.2   161  LYS161      0.2287
    102  O         82.9730  -83.7070  -29.3190 O.2   161  LYS161     -0.2864
    103  CB        82.7390  -85.6730  -26.7100 C.3   161  LYS161      0.0298
    104  CG        83.7330  -86.4050  -27.6030 C.3   161  LYS161      0.0038
    105  CD        85.1570  -86.2450  -27.0930 C.3   161  LYS161      0.0206
    106  CE        85.4370  -87.1650  -25.9110 C.3   161  LYS161      0.1093
    107  NZ        86.8580  -87.0820  -25.4390 N.3   161  LYS161     -0.1314
    108  N         85.8820  -75.2670  -16.9290 N.3   171  ALA171     -0.1245
    109  CA        87.3510  -75.2650  -16.9850 C.3   171  ALA171      0.1562
    110  C         87.9790  -73.8730  -17.0240 C.2   171  ALA171      0.2260
    111  O         89.1260  -73.6950  -17.4530 O.2   171  ALA171     -0.2867
    112  CB        87.8020  -76.0700  -18.1940 C.3   171  ALA171      0.0290
    113  N         92.8600  -74.5710  -25.7100 N.3   322  GLU322     -0.1245
    114  CA        91.4430  -74.8600  -25.9120 C.3   322  GLU322      0.1567
    115  C         90.6200  -73.5980  -25.6410 C.2   322  GLU322      0.2260
    116  O         89.7270  -73.2400  -26.4030 O.2   322  GLU322     -0.2867
    117  CB        91.0000  -75.9880  -24.9870 C.3   322  GLU322      0.0388
    118  CG        89.5020  -76.1880  -24.9510 C.3   322  GLU322      0.1160
    119  CD        89.0860  -77.2830  -23.9950 C.2   322  GLU322      0.3649
    120  OE1       89.1550  -77.0720  -22.7630 O.co2 322  GLU322     -0.2457
    121  OE2       88.6910  -78.3620  -24.4830 O.co2 322  GLU322     -0.2457
@<TRIPOS>BOND
     1   102   101    2
     2   101   100    1
     3   104   105    1
     4   104   103    1
     5   105   106    1
     6   100   103    1
     7   100    99    1
     8    91    90    2
     9   116   115    2
    10    99    90   am
    11   114   113    1
    12   114   115    1
    13   114   117    1
    14   106   107    1
    15    90    89    1
    16   117   118    1
    17   118   119    1
    18    88    89    1
    19    89    92    1
    20   121   119   ar
    21   119   120   ar
    22    83    82    2
    23    92    93    1
    24    93    94    1
    25    82    81    1
    26    97    96    1
    27    94    95    1
    28    76    75    2
    29    81    80    1
    30    81    84    1
    31    96    95    2
    32    96    98    1
    33    84    85    1
    34    75    74    1
    35    87    85    1
    36    77    74    1
    37    77    78    1
    38    74    73    1
    39    85    86    1
    40    69    68    2
    41   112   109    1
    42    73    68   am
    43    73    79    1
    44    45    44   ar
    45    45    43   ar
    46    78    79    1
    47    65    64    1
    48    44    42   ar
    49    71    70    1
    50    13    12    2
    51    68    67    1
    52    63    64   ar
    53    63    61   ar
    54   111   110    2
    55    64    62   ar
    56    15    14    1
    57    15    16    1
    58   110   109    1
    59   109   108    1
    60     4     3    2
    61    11    12    1
    62    11    14    1
    63    11    10    1
    64    61    59   ar
    65    43    41   ar
    66    17    16    1
    67    70    67    1
    68    70    72    1
    69    42    40   ar
    70    62    60   ar
    71    67    66    1
    72    59    60   ar
    73    59    58    1
    74     3    10   am
    75     3     2    1
    76    66    56   am
    77    58    55    1
    78    41    40   ar
    79    40    39    1
    80     5     2    1
    81     5     6    1
    82    25    23   am
    83     7     6    1
    84     7     8    1
    85    56    55    1
    86    56    57    2
    87     2     1    1
    88    55    54    1
    89     9     8    1
    90    39    36    1
    91    23    24    2
    92    23    22    1
    93    36    35    1
    94    36    37    1
    95    38    37    2
    96    22    19    1
    97    37    46   am
    98    21    20    2
    99    19    20    1
   100    19    18    1
   101    20    26   am
   102    33    32    2
   103    46    47    1
   104    34    32   am
   105    26    27    1
   106    32    31    1
   107    48    47    1
   108    48    49    2
   109    47    50    1
   110    27    28    1
   111    27    30    1
   112    29    28    2
   113    30    31    1
   114    53    51   ar
   115    50    51    1
   116    51    52   ar
