@<TRIPOS>MOLECULE
tmp/1h18B01.pdb
 106 101 0 0 0
SMALL
GASTEIGER

@<TRIPOS>ATOM
      1  N         96.8670   63.0190   68.8770 N.3    64  GLU64      -0.1231
      2  CA        96.9770   61.7330   69.5690 C.3    64  GLU64       0.1699
      3  C         98.1020   60.9300   68.9590 C.2    64  GLU64       0.2592
      4  O         98.9560   60.4290   69.6760 O.2    64  GLU64      -0.2718
      5  CB        95.6900   60.8950   69.4520 C.3    64  GLU64       0.0402
      6  CG        94.4480   61.5010   70.0650 C.3    64  GLU64       0.1161
      7  CD        93.2450   60.5850   69.9510 C.2    64  GLU64       0.3649
      8  OE1       92.9900   60.0760   68.8420 O.co2  64  GLU64      -0.2457
      9  OE2       92.5510   60.3740   70.9720 O.co2  64  GLU64      -0.2457
     10  N         98.0820   60.7960   67.6340 N.am   65  ASN65      -0.1974
     11  CA        99.1010   60.0370   66.9200 C.3    65  ASN65       0.1688
     12  C        100.5370   60.5120   67.1740 C.2    65  ASN65       0.2292
     13  O        101.4140   59.6920   67.4620 O.2    65  ASN65      -0.2864
     14  CB        98.8390   60.0570   65.4120 C.3    65  ASN65       0.1181
     15  CG        97.7180   59.1220   64.9910 C.2    65  ASN65       0.2629
     16  OD1       97.2360   58.3210   65.7860 O.2    65  ASN65      -0.2716
     17  ND2       97.3060   59.2140   63.7220 N.am   65  ASN65      -0.0877
     18  N        101.3660   60.0230   70.9010 N.3    68  HIS68      -0.1226
     19  CA       101.1070   58.6500   71.3360 C.3    68  HIS68       0.1752
     20  C        100.4860   58.6810   72.7570 C.2    68  HIS68       0.2596
     21  O        100.7410   57.8210   73.5860 O.2    68  HIS68      -0.2718
     22  CB       102.3890   57.8360   71.3450 C.3    68  HIS68       0.0759
     23  CG       102.1600   56.3650   71.2040 C.ar   68  HIS68       0.0818
     24  ND1      101.8960   55.7650   69.9900 N.ar   68  HIS68      -0.2268
     25  CD2      102.1680   55.3680   72.1210 C.ar   68  HIS68       0.1154
     26  CE1      101.7600   54.4600   70.1620 C.ar   68  HIS68       0.1986
     27  NE2      101.9190   54.1940   71.4470 N.ar   68  HIS68      -0.2212
     28  N         99.6560   59.6860   73.0060 N.am   69  ALA69      -0.1966
     29  CA        98.9960   59.8790   74.2840 C.3    69  ALA69       0.1713
     30  C         97.5800   60.4640   74.1170 C.2    69  ALA69       0.2458
     31  O         97.2330   61.0250   73.0790 O.2    69  ALA69      -0.2730
     32  CB        99.8430   60.8140   75.1630 C.3    69  ALA69       0.0333
     33  N         96.7360   60.3220   75.1480 N.am   70  PRO70      -0.2727
     34  CA        95.3780   60.8620   75.0610 C.3    70  PRO70       0.1402
     35  C         95.4070   62.3740   74.8600 C.2    70  PRO70       0.2269
     36  O         96.3630   63.0400   75.2470 O.2    70  PRO70      -0.2865
     37  CB        94.7720   60.4960   76.4250 C.3    70  PRO70       0.0296
     38  CG        95.4630   59.2290   76.7710 C.3    70  PRO70       0.0237
     39  CD        96.9030   59.5020   76.3640 C.3    70  PRO70       0.0939
     40  N         89.1630   61.1610   77.4970 N.3   107  ARG107     -0.1245
     41  CA        88.9180   59.8250   78.0280 C.3   107  ARG107      0.1563
     42  C         88.4980   59.8520   79.4920 C.2   107  ARG107      0.2260
     43  O         88.8870   60.7540   80.2460 O.2   107  ARG107     -0.2867
     44  CB        90.1580   58.9610   77.8040 C.3   107  ARG107      0.0307
     45  CG        90.8220   59.2460   76.4610 C.3   107  ARG107      0.0489
     46  CD        91.8110   58.1630   76.0170 C.3   107  ARG107      0.2205
     47  NE        92.3930   58.4670   74.7060 N.pl3 107  ARG107     -0.0865
     48  CZ        92.9450   57.5670   73.8920 C.cat 107  ARG107      0.5346
     49  NH1       93.0040   56.2870   74.2260 N.pl3 107  ARG107      0.1354
     50  NH2       93.4520   57.9460   72.7340 N.pl3 107  ARG107      0.1354
     51  N        101.3040   59.5650   81.6750 N.3   125  TYR125     -0.1241
     52  CA       101.0220   60.7810   80.9130 C.3   125  TYR125      0.1605
     53  C        101.1250   62.0650   81.7160 C.2   125  TYR125      0.2264
     54  O        100.4960   63.0650   81.3640 O.2   125  TYR125     -0.2867
     55  CB        99.6260   60.7230   80.2930 C.3   125  TYR125      0.0534
     56  CG        99.3390   59.4700   79.5170 C.ar  125  TYR125     -0.0201
     57  CD1       98.2400   58.6760   79.8350 C.ar  125  TYR125     -0.0009
     58  CD2      100.1640   59.0660   78.4720 C.ar  125  TYR125     -0.0009
     59  CE1       97.9690   57.5080   79.1300 C.ar  125  TYR125      0.0417
     60  CE2       99.9050   57.9000   77.7610 C.ar  125  TYR125      0.0417
     61  CZ        98.8030   57.1270   78.0950 C.ar  125  TYR125      0.1957
     62  OH        98.5130   55.9820   77.3800 O.3   125  TYR125     -0.2866
     63  N         94.1060   53.7320   78.6290 N.3   319  ARG319     -0.1245
     64  CA        94.8210   52.4660   78.7780 C.3   319  ARG319      0.1563
     65  C         96.2430   52.6710   79.3350 C.2   319  ARG319      0.2260
     66  O         96.7820   53.7790   79.3030 O.2   319  ARG319     -0.2867
     67  CB        94.9090   51.7580   77.4190 C.3   319  ARG319      0.0307
     68  CG        93.6090   51.6200   76.6750 C.3   319  ARG319      0.0489
     69  CD        92.6220   50.7500   77.4130 C.3   319  ARG319      0.2205
     70  NE        91.5130   50.3400   76.5470 N.pl3 319  ARG319     -0.0865
     71  CZ        90.4480   49.6610   76.9570 C.cat 319  ARG319      0.5346
     72  NH1       90.3330   49.3160   78.2300 N.pl3 319  ARG319      0.1354
     73  NH2       89.5050   49.3080   76.0920 N.pl3 319  ARG319      0.1354
     74  N        100.4980   51.7240   79.5080 N.3   321  PRO321     -0.2116
     75  CA       101.5240   51.4550   78.4900 C.3   321  PRO321      0.1372
     76  C        101.6310   49.9570   78.2030 C.2   321  PRO321      0.2244
     77  O        101.8900   49.5540   77.0770 O.2   321  PRO321     -0.2868
     78  CB       102.7890   52.0310   79.1130 C.3   321  PRO321      0.0268
     79  CG       102.2510   53.2130   79.9040 C.3   321  PRO321      0.0207
     80  CD       101.0230   52.6000   80.5720 C.3   321  PRO321      0.0892
     81  N         99.0280   49.1310   75.8820 N.3   324  ASP324     -0.1239
     82  CA        99.5050   49.5870   74.5720 C.3   324  ASP324      0.1674
     83  C        100.3650   48.5490   73.8430 C.2   324  ASP324      0.2266
     84  O        100.3110   48.4470   72.6160 O.2   324  ASP324     -0.2867
     85  CB       100.3070   50.8910   74.7060 C.3   324  ASP324      0.1410
     86  CG       100.6010   51.5380   73.3440 C.2   324  ASP324      0.3668
     87  OD1      101.7770   51.8950   73.0690 O.co2 324  ASP324     -0.2456
     88  OD2       99.6420   51.6840   72.5480 O.co2 324  ASP324     -0.2456
     89  N         97.8410   50.3950   68.5310 N.3   329  GLY329     -0.1210
     90  CA        97.0660   51.2350   67.6480 C.3   329  GLY329      0.1956
     91  C         95.8510   51.9320   68.2270 C.2   329  GLY329      0.2611
     92  O         95.0230   52.4260   67.4640 O.2   329  GLY329     -0.2717
     93  N         95.7440   51.9860   69.5540 N.am  330  ASP330     -0.1973
     94  CA        94.6090   52.6440   70.2020 C.3   330  ASP330      0.1709
     95  C         93.3170   52.0360   69.6520 C.2   330  ASP330      0.2293
     96  O         92.4120   52.7600   69.2080 O.2   330  ASP330     -0.2864
     97  CB        94.6420   54.1370   69.8810 C.3   330  ASP330      0.1436
     98  CG        94.0350   54.9800   70.9750 C.2   330  ASP330      0.3671
     99  OD1       93.6780   56.1440   70.6970 O.co2 330  ASP330     -0.2456
    100  OD2       93.9290   54.4780   72.1160 O.co2 330  ASP330     -0.2456
    101  N         99.6340   55.6630   64.3390 N.3   741  SER741     -0.1217
    102  CA        99.2770   55.4440   65.7430 C.3   741  SER741      0.1889
    103  C        100.1160   54.3560   66.4120 C.2   741  SER741      0.2288
    104  O        100.1080   54.2290   67.6320 O.2   741  SER741     -0.2866
    105  CB        97.7920   55.0810   65.8650 C.3   741  SER741      0.2089
    106  OG        97.5810   53.7090   65.5560 O.3   741  SER741     -0.2183
@<TRIPOS>BOND
     1    17    15   am
     2   101   102    1
     3    15    14    1
     4    15    16    2
     5    14    11    1
     6   106   105    1
     7   102   105    1
     8   102   103    1
     9   103   104    2
    10    11    12    1
    11    11    10    1
    12    12    13    2
    13    92    91    2
    14    10     3   am
    15    90    91    1
    16    90    89    1
    17    91    93   am
    18     8     7   ar
    19     1     2    1
    20     3     2    1
    21     3     4    2
    22    96    95    2
    23     5     2    1
    24     5     6    1
    25    93    94    1
    26    95    94    1
    27    97    94    1
    28    97    98    1
    29     7     6    1
    30     7     9   ar
    31    24    26   ar
    32    24    23   ar
    33    26    27   ar
    34    99    98   ar
    35    18    19    1
    36    98   100   ar
    37    23    22    1
    38    23    25   ar
    39    19    22    1
    40    19    20    1
    41    27    25   ar
    42    88    86   ar
    43    84    83    2
    44    50    48    1
    45    20    28   am
    46    20    21    2
    47    28    29    1
    48    87    86   ar
    49    31    30    2
    50    86    85    1
    51    83    82    1
    52    48    49    1
    53    48    47    2
    54    30    29    1
    55    30    33   am
    56    29    32    1
    57    82    85    1
    58    82    81    1
    59    47    46    1
    60    35    34    1
    61    35    36    2
    62    34    33    1
    63    34    37    1
    64    33    39    1
    65    46    45    1
    66    73    71    1
    67    39    38    1
    68    37    38    1
    69    45    44    1
    70    70    71    2
    71    70    69    1
    72    68    69    1
    73    68    67    1
    74    71    72    1
    75    77    76    2
    76    62    61    1
    77    67    64    1
    78    40    41    1
    79    60    61   ar
    80    60    58   ar
    81    44    41    1
    82    41    42    1
    83    61    59   ar
    84    76    75    1
    85    58    56   ar
    86    75    78    1
    87    75    74    1
    88    63    64    1
    89    64    65    1
    90    78    79    1
    91    59    57   ar
    92    66    65    2
    93    42    43    2
    94    74    80    1
    95    56    57   ar
    96    56    55    1
    97    79    80    1
    98    55    52    1
    99    52    51    1
   100    52    53    1
   101    54    53    2
