@<TRIPOS>MOLECULE
tmp/1h18B03.pdb
 73 68 0 0 0
SMALL
GASTEIGER

@<TRIPOS>ATOM
      1  N         97.4320   32.1230   46.5460 N.3   645  VAL645     -0.1245
      2  CA        96.6500   30.8820   46.6120 C.3   645  VAL645      0.1561
      3  C         97.3280   29.8570   47.5160 C.2   645  VAL645      0.2260
      4  O         96.6670   29.0030   48.1130 O.2   645  VAL645     -0.2867
      5  CB        96.4340   30.2630   45.1950 C.3   645  VAL645      0.0252
      6  CG1       95.6270   28.9680   45.2930 C.3   645  VAL645      0.0019
      7  CG2       95.7180   31.2550   44.3030 C.3   645  VAL645      0.0019
      8  N         96.8290   31.2140   51.3590 N.3   648  LEU648     -0.1231
      9  CA        95.4140   31.1500   51.7090 C.3   648  LEU648      0.1693
     10  C         94.9950   29.6910   51.9050 C.2   648  LEU648      0.2592
     11  O         94.2150   29.3860   52.8110 O.2   648  LEU648     -0.2718
     12  CB        94.5450   31.7980   50.6220 C.3   648  LEU648      0.0284
     13  CG        94.6060   33.3190   50.3820 C.3   648  LEU648      0.0019
     14  CD1       94.0040   33.6180   49.0070 C.3   648  LEU648      0.0001
     15  CD2       93.8610   34.0920   51.4820 C.3   648  LEU648      0.0001
     16  N         95.5160   28.7900   51.0700 N.am  649  THR649     -0.1953
     17  CA        95.1800   27.3650   51.1800 C.3   649  THR649      0.1897
     18  C         95.6930   26.7550   52.4830 C.2   649  THR649      0.2313
     19  O         95.0510   25.8770   53.0610 O.2   649  THR649     -0.2863
     20  CB        95.7400   26.5410   49.9760 C.3   649  THR649      0.1794
     21  OG1       95.1840   27.0430   48.7530 O.3   649  THR649     -0.2208
     22  CG2       95.3770   25.0510   50.1140 C.3   649  THR649      0.0378
     23  N         93.4670   28.4040   55.3050 N.3   652  ALA652     -0.1245
     24  CA        92.1110   27.9050   55.1370 C.3   652  ALA652      0.1562
     25  C         91.9660   26.4580   55.6180 C.2   652  ALA652      0.2260
     26  O         90.8600   25.9660   55.7790 O.2   652  ALA652     -0.2867
     27  CB        91.6870   28.0320   53.6740 C.3   652  ALA652      0.0290
     28  N         87.5050   37.1970   43.3940 N.3   687  GLY687     -0.1210
     29  CA        87.6850   35.8110   42.9800 C.3   687  GLY687      0.1956
     30  C         88.5330   35.0230   43.9620 C.2   687  GLY687      0.2611
     31  O         88.2810   33.8410   44.2050 O.2   687  GLY687     -0.2717
     32  N         89.5480   35.6760   44.5240 N.am  688  LEU688     -0.1979
     33  CA        90.4240   35.0380   45.5040 C.3   688  LEU688      0.1596
     34  C         89.6290   34.6290   46.7400 C.2   688  LEU688      0.2287
     35  O         89.6940   33.4800   47.1970 O.2   688  LEU688     -0.2864
     36  CB        91.5240   35.9980   45.9450 C.3   688  LEU688      0.0297
     37  CG        92.7640   36.2210   45.0890 C.3   688  LEU688      0.0022
     38  CD1       93.6030   37.3420   45.7140 C.3   688  LEU688      0.0001
     39  CD2       93.5660   34.9220   45.0090 C.3   688  LEU688      0.0001
     40  N         87.2510   31.7100   46.5500 N.3   691  GLY691     -0.1210
     41  CA        87.9520   30.4480   46.7010 C.3   691  GLY691      0.1956
     42  C         88.4380   30.1880   48.1170 C.2   691  GLY691      0.2611
     43  O         88.3480   29.0580   48.6200 O.2   691  GLY691     -0.2717
     44  N         88.9700   31.2200   48.7630 N.am  692  TYR692     -0.1976
     45  CA        89.4440   31.0610   50.1380 C.3   692  TYR692      0.1639
     46  C         88.2590   30.6770   51.0170 C.2   692  TYR692      0.2290
     47  O         88.3260   29.7280   51.7930 O.2   692  TYR692     -0.2864
     48  CB        90.0850   32.3610   50.6530 C.3   692  TYR692      0.0560
     49  CG        90.4290   32.3790   52.1340 C.ar  692  TYR692     -0.0198
     50  CD1       91.3870   31.5170   52.6650 C.ar  692  TYR692     -0.0009
     51  CD2       89.8260   33.3030   52.9980 C.ar  692  TYR692     -0.0009
     52  CE1       91.7430   31.5780   54.0200 C.ar  692  TYR692      0.0417
     53  CE2       90.1760   33.3760   54.3560 C.ar  692  TYR692      0.0417
     54  CZ        91.1360   32.5150   54.8540 C.ar  692  TYR692      0.1957
     55  OH        91.5240   32.6190   56.1670 O.3   692  TYR692     -0.2866
     56  N         85.4740   29.4020   50.0160 N.3   694  HIS694     -0.1241
     57  CA        84.7120   28.2860   49.4470 C.3   694  HIS694      0.1621
     58  C         84.3620   27.2200   50.4760 C.2   694  HIS694      0.2264
     59  O         85.2380   26.6610   51.1280 O.2   694  HIS694     -0.2867
     60  CB        85.4610   27.6160   48.2930 C.3   694  HIS694      0.0745
     61  CG        84.6600   26.5360   47.6380 C.ar  694  HIS694      0.0817
     62  ND1       83.5580   26.8060   46.8530 N.ar  694  HIS694     -0.2268
     63  CD2       84.7190   25.1880   47.7500 C.ar  694  HIS694      0.1154
     64  CE1       82.9700   25.6720   46.5140 C.ar  694  HIS694      0.1986
     65  NE2       83.6540   24.6750   47.0470 N.ar  694  HIS694     -0.2212
     66  N         84.8340   20.4410   52.3670 N.3   699  ILE699     -0.1245
     67  CA        85.7200   21.5940   52.4680 C.3   699  ILE699      0.1561
     68  C         85.1240   22.6340   53.4290 C.2   699  ILE699      0.2260
     69  O         84.0900   23.2480   53.1340 O.2   699  ILE699     -0.2867
     70  CB        85.9070   22.2350   51.0810 C.3   699  ILE699      0.0252
     71  CG1       86.2100   21.1350   50.0570 C.3   699  ILE699      0.0019
     72  CG2       87.0220   23.2760   51.1280 C.3   699  ILE699      0.0019
     73  CD1       86.1260   21.5760   48.6010 C.3   699  ILE699      0.0001
@<TRIPOS>BOND
     1    29    28    1
     2    29    30    1
     3    30    31    2
     4    30    32   am
     5     7     5    1
     6    32    33    1
     7    39    37    1
     8    37    38    1
     9    37    36    1
    10     5     6    1
    11     5     2    1
    12    33    36    1
    13    33    34    1
    14    64    62   ar
    15    64    65   ar
    16     1     2    1
    17    40    41    1
    18     2     3    1
    19    41    42    1
    20    34    35    2
    21    62    61   ar
    22    65    63   ar
    23     3     4    2
    24    61    63   ar
    25    61    60    1
    26    42    43    2
    27    42    44   am
    28    60    57    1
    29    73    71    1
    30    21    20    1
    31    44    45    1
    32    14    13    1
    33    57    56    1
    34    57    58    1
    35    20    22    1
    36    20    17    1
    37    71    70    1
    38    45    48    1
    39    45    46    1
    40    13    12    1
    41    13    15    1
    42    58    59    2
    43    12     9    1
    44    48    49    1
    45    46    47    2
    46    16    17    1
    47    16    10   am
    48    70    72    1
    49    70    67    1
    50    17    18    1
    51     8     9    1
    52     9    10    1
    53    10    11    2
    54    49    50   ar
    55    49    51   ar
    56    66    67    1
    57    67    68    1
    58    18    19    2
    59    50    52   ar
    60    51    53   ar
    61    69    68    2
    62    27    24    1
    63    52    54   ar
    64    53    54   ar
    65    54    55    1
    66    24    23    1
    67    24    25    1
    68    25    26    2
