@<TRIPOS>MOLECULE
tmp/1h1bB01.pdb
 90 87 0 0 0
SMALL
GASTEIGER

@<TRIPOS>ATOM
      1  N         35.9600  -30.7500   22.3080 N.3     5  ARG5       -0.1245
      2  CA        37.3440  -30.7420   22.7510 C.3     5  ARG5        0.1563
      3  C         37.9380  -29.3400   22.6480 C.2     5  ARG5        0.2260
      4  O         37.5170  -28.5430   21.8220 O.2     5  ARG5       -0.2867
      5  CB        38.1790  -31.7240   21.8980 C.3     5  ARG5        0.0307
      6  CG        38.4040  -31.2920   20.4400 C.3     5  ARG5        0.0489
      7  CD        38.7330  -32.4440   19.4750 C.3     5  ARG5        0.2205
      8  NE        38.4310  -32.1170   18.0790 N.pl3   5  ARG5       -0.0865
      9  CZ        37.3800  -32.5590   17.4040 C.cat   5  ARG5        0.5346
     10  NH1       36.4910  -33.3500   17.9720 N.pl3   5  ARG5        0.1354
     11  NH2       37.2100  -32.2040   16.1450 N.pl3   5  ARG5        0.1354
     12  N         41.3850  -21.2620   14.5610 N.3    12  TRP12      -0.1241
     13  CA        40.3140  -20.5790   13.8410 C.3    12  TRP12       0.1605
     14  C         40.4130  -19.0670   14.1240 C.2    12  TRP12       0.2264
     15  O         39.6620  -18.5300   14.9350 O.2    12  TRP12      -0.2867
     16  CB        38.9970  -21.1280   14.3180 C.3    12  TRP12       0.0550
     17  CG        39.0860  -22.5830   14.5230 C.ar   12  TRP12       0.0003
     18  CD1       39.0830  -23.2480   15.7070 C.ar   12  TRP12       0.0946
     19  CD2       39.2120  -23.5670   13.5060 C.ar   12  TRP12       0.0152
     20  NE1       39.1760  -24.6000   15.4890 N.ar   12  TRP12      -0.2442
     21  CE2       39.2590  -24.8210   14.1390 C.ar   12  TRP12       0.0810
     22  CE3       39.2710  -23.5180   12.1120 C.ar   12  TRP12       0.0012
     23  CZ2       39.3800  -26.0060   13.4330 C.ar   12  TRP12       0.0191
     24  CZ3       39.4000  -24.6980   11.4090 C.ar   12  TRP12       0.0001
     25  CH2       39.4540  -25.9260   12.0740 C.ar   12  TRP12       0.0015
     26  N         29.7530  -33.0920    7.0130 N.3   121  GLN121     -0.1231
     27  CA        30.4110  -33.0020    8.3070 C.3   121  GLN121      0.1698
     28  C         31.0410  -31.6540    8.6390 C.2   121  GLN121      0.2592
     29  O         32.0820  -31.2610    8.0930 O.2   121  GLN121     -0.2718
     30  CB        31.4220  -34.1170    8.4970 C.3   121  GLN121      0.0381
     31  CG        30.8300  -35.5280    8.2880 C.3   121  GLN121      0.0905
     32  CD        30.0320  -36.0120    9.4690 C.2   121  GLN121      0.2608
     33  OE1       30.5540  -36.0630   10.5920 O.2   121  GLN121     -0.2717
     34  NE2       28.7610  -36.3570    9.2370 N.am  121  GLN121     -0.0878
     35  N         30.4230  -30.9590    9.5830 N.am  122  CYS122     -0.1956
     36  CA        30.8770  -29.6180    9.9410 C.3   122  CYS122      0.1843
     37  C         31.5090  -29.5540   11.2850 C.2   122  CYS122      0.2625
     38  O         31.5790  -30.5390   12.0260 O.2   122  CYS122     -0.2714
     39  CB        29.7200  -28.6350    9.9520 C.3   122  CYS122      0.0997
     40  SG        28.8190  -28.5880    8.4400 S.3   122  CYS122     -0.0797
     41  N         31.9320  -28.3510   11.6270 N.am  123  LEU123     -0.1977
     42  CA        32.5530  -28.1580   12.9130 C.3   123  LEU123      0.1596
     43  C         31.9560  -26.9170   13.5670 C.2   123  LEU123      0.2287
     44  O         31.9240  -25.8580   12.9610 O.2   123  LEU123     -0.2864
     45  CB        34.0640  -28.0290   12.7440 C.3   123  LEU123      0.0297
     46  CG        34.8500  -27.9530   14.0530 C.3   123  LEU123      0.0022
     47  CD1       35.0100  -29.3050   14.7600 C.3   123  LEU123      0.0001
     48  CD2       36.2230  -27.3620   13.7850 C.3   123  LEU123      0.0001
     49  N         35.6090  -26.9390   20.3210 N.3   142  GLU142     -0.1245
     50  CA        35.1070  -27.3140   19.0030 C.3   142  GLU142      0.1567
     51  C         34.3660  -28.6420   19.0320 C.2   142  GLU142      0.2260
     52  O         34.5740  -29.4530   19.9120 O.2   142  GLU142     -0.2867
     53  CB        36.2310  -27.3700   17.9730 C.3   142  GLU142      0.0388
     54  CG        37.4710  -28.1290   18.4660 C.3   142  GLU142      0.1160
     55  CD        38.5330  -28.2400   17.4030 C.2   142  GLU142      0.3649
     56  OE1       39.2740  -27.2650   17.1970 O.co2 142  GLU142     -0.2457
     57  OE2       38.6170  -29.2990   16.7640 O.co2 142  GLU142     -0.2457
     58  N         32.5850  -31.7820   16.4220 N.3   144  ASN144     -0.1240
     59  CA        32.2320  -32.3230   15.1030 C.3   144  ASN144      0.1653
     60  C         30.7380  -32.5270   15.1010 C.2   144  ASN144      0.2266
     61  O         30.2230  -32.9970   16.0570 O.2   144  ASN144     -0.2867
     62  CB        32.9530  -33.6720   14.8190 C.3   144  ASN144      0.1155
     63  CG        34.4910  -33.5350   14.6720 C.2   144  ASN144      0.2627
     64  OD1       35.1950  -33.3210   15.6490 O.2   144  ASN144     -0.2716
     65  ND2       34.9980  -33.7410   13.4410 N.am  144  ASN144     -0.0877
     66  N         31.5320  -24.1130   10.7090 N.3   178  VAL178     -0.1231
     67  CA        32.4040  -24.2210    9.5490 C.3   178  VAL178      0.1692
     68  C         32.1440  -25.5610    8.8280 C.2   178  VAL178      0.2592
     69  O         32.2220  -26.5990    9.4520 O.2   178  VAL178     -0.2718
     70  CB        33.8970  -24.2160   10.0140 C.3   178  VAL178      0.0266
     71  CG1       34.8510  -24.0170    8.8170 C.3   178  VAL178      0.0020
     72  CG2       34.1360  -23.1550   11.1000 C.3   178  VAL178      0.0020
     73  N         31.8270  -25.5360    7.5350 N.am  179  CYS179     -0.1956
     74  CA        31.6520  -26.7740    6.7470 C.3   179  CYS179      0.1843
     75  C         32.5500  -26.7310    5.4830 C.2   179  CYS179      0.2625
     76  O         32.4320  -25.8150    4.6360 O.2   179  CYS179     -0.2714
     77  CB        30.1990  -26.9350    6.2930 C.3   179  CYS179      0.0997
     78  SG        28.9380  -26.7510    7.5730 S.3   179  CYS179     -0.0797
     79  N         33.4250  -27.7280    5.3280 N.am  180  ASN180     -0.1958
     80  CA        34.2930  -27.7610    4.1570 C.3   180  ASN180      0.1819
     81  C         34.8010  -26.3500    3.8670 C.2   180  ASN180      0.2621
     82  O         34.6500  -25.8280    2.7560 O.2   180  ASN180     -0.2715
     83  CB        33.5230  -28.3310    2.9470 C.3   180  ASN180      0.1195
     84  CG        32.9980  -29.7550    3.2020 C.2   180  ASN180      0.2630
     85  OD1       33.6060  -30.5270    3.9510 O.2   180  ASN180     -0.2716
     86  ND2       31.8660  -30.0920    2.5970 N.am  180  ASN180     -0.0877
     87  N         35.2980  -25.7060    4.9230 N.am  181  GLY181     -0.1954
     88  CA        35.9660  -24.4270    4.8240 C.3   181  GLY181      0.1869
     89  C         35.2300  -23.0990    4.8420 C.2   181  GLY181      0.2309
     90  O         35.8940  -22.0800    4.9900 O.2   181  GLY181     -0.2863
@<TRIPOS>BOND
     1    86    84   am
     2    82    81    2
     3    83    84    1
     4    83    80    1
     5    84    85    2
     6    81    80    1
     7    81    87   am
     8    80    79    1
     9    76    75    2
    10    88    89    1
    11    88    87    1
    12    89    90    2
    13    79    75   am
    14    75    74    1
    15    77    74    1
    16    77    78    1
    17    74    73    1
    18    26    27    1
    19    73    68   am
    20    78    40    1
    21    29    28    2
    22    31    30    1
    23    31    32    1
    24    27    30    1
    25    27    28    1
    26    40    39    1
    27    28    35   am
    28    71    70    1
    29    68    69    2
    30    68    67    1
    31    34    32   am
    32    32    33    2
    33    67    70    1
    34    67    66    1
    35    35    36    1
    36    36    39    1
    37    36    37    1
    38    70    72    1
    39    37    41   am
    40    37    38    2
    41    24    25   ar
    42    24    22   ar
    43    41    42    1
    44    25    23   ar
    45    22    19   ar
    46    45    42    1
    47    45    46    1
    48    42    43    1
    49    44    43    2
    50    23    21   ar
    51    65    63   am
    52    19    21   ar
    53    19    17   ar
    54    48    46    1
    55    13    14    1
    56    13    16    1
    57    13    12    1
    58    46    47    1
    59    14    15    2
    60    21    20   ar
    61    16    17    1
    62    17    18   ar
    63    63    62    1
    64    63    64    2
    65    62    59    1
    66    60    59    1
    67    60    61    2
    68    59    58    1
    69    20    18   ar
    70    11     9    1
    71    57    55   ar
    72    56    55   ar
    73    55    54    1
    74     9    10    1
    75     9     8    2
    76    53    54    1
    77    53    50    1
    78     8     7    1
    79    50    51    1
    80    50    49    1
    81    51    52    2
    82     7     6    1
    83     6     5    1
    84     4     3    2
    85     5     2    1
    86     1     2    1
    87     3     2    1
