@<TRIPOS>MOLECULE
tmp/1h1bB00.pdb
 122 118 0 0 0
SMALL
GASTEIGER

@<TRIPOS>ATOM
      1  N         20.1270  -11.9180   17.8120 N.3    41  HIS41      -0.1241
      2  CA        19.5560  -12.0450   19.1470 C.3    41  HIS41       0.1621
      3  C         20.5580  -11.6150   20.1750 C.2    41  HIS41       0.2264
      4  O         20.1960  -11.2070   21.2720 O.2    41  HIS41      -0.2867
      5  CB        19.0950  -13.5130   19.4360 C.3    41  HIS41       0.0745
      6  CG        18.3500  -13.6450   20.7270 C.ar   41  HIS41       0.0817
      7  ND1       18.9840  -13.9490   21.9180 N.ar   41  HIS41      -0.2268
      8  CD2       17.0460  -13.4170   21.0370 C.ar   41  HIS41       0.1154
      9  CE1       18.0850  -13.9690   22.8990 C.ar   41  HIS41       0.1986
     10  NE2       16.9090  -13.6350   22.3960 N.ar   41  HIS41      -0.2212
     11  N         10.3410  -12.9500   17.7600 N.3    83  VAL83      -0.1231
     12  CA         9.4310  -13.9800   18.2650 C.3    83  VAL83       0.1692
     13  C          9.9190  -15.4050   17.9750 C.2    83  VAL83       0.2592
     14  O          9.9760  -16.2240   18.8890 O.2    83  VAL83      -0.2718
     15  CB         8.0320  -13.7650   17.6970 C.3    83  VAL83       0.0266
     16  CG1        6.9880  -14.7680   18.2650 C.3    83  VAL83       0.0020
     17  CG2        7.5900  -12.3390   17.9690 C.3    83  VAL83       0.0020
     18  N         10.3400  -15.7050   16.7510 N.am   84  ASN84      -0.1960
     19  CA        10.7520  -17.0910   16.4610 C.3    84  ASN84       0.1819
     20  C         12.2000  -17.2160   16.0450 C.2    84  ASN84       0.2621
     21  O         12.6370  -18.2940   15.6770 O.2    84  ASN84      -0.2715
     22  CB         9.8320  -17.6940   15.3940 C.3    84  ASN84       0.1195
     23  CG         9.7800  -16.8310   14.1310 C.2    84  ASN84       0.2630
     24  OD1       10.6160  -15.9680   13.9490 O.2    84  ASN84      -0.2716
     25  ND2        8.8230  -17.1010   13.2440 N.am   84  ASN84      -0.0877
     26  N         12.9740  -16.1150   16.0800 N.am   85  LEU85      -0.1977
     27  CA        14.3950  -16.1840   15.6260 C.3    85  LEU85       0.1596
     28  C         14.6760  -16.4560   14.1330 C.2    85  LEU85       0.2287
     29  O         15.7890  -16.7640   13.7680 O.2    85  LEU85      -0.2864
     30  CB        15.3060  -17.0160   16.5310 C.3    85  LEU85       0.0297
     31  CG        15.2720  -16.8730   18.0720 C.3    85  LEU85       0.0022
     32  CD1       16.3570  -17.7270   18.8120 C.3    85  LEU85       0.0001
     33  CD2       15.3610  -15.3900   18.4810 C.3    85  LEU85       0.0001
     34  N         13.6260  -26.2360   10.3280 N.3   153  ARG153     -0.1245
     35  CA        12.8640  -25.4020    9.3900 C.3   153  ARG153      0.1563
     36  C         13.6840  -25.3190    8.0920 C.2   153  ARG153      0.2260
     37  O         14.8690  -25.4830    8.1360 O.2   153  ARG153     -0.2867
     38  CB        12.5760  -23.9890   10.0070 C.3   153  ARG153      0.0307
     39  CG        12.3870  -24.0690   11.5450 C.3   153  ARG153      0.0489
     40  CD        11.5230  -23.0110   12.2910 C.3   153  ARG153      0.2205
     41  NE        12.1710  -21.7160   12.4380 N.pl3 153  ARG153     -0.0865
     42  CZ        12.1380  -20.9260   13.5300 C.cat 153  ARG153      0.5346
     43  NH1       11.5260  -21.2860   14.6480 N.pl3 153  ARG153      0.1354
     44  NH2       12.7400  -19.7480   13.4820 N.pl3 153  ARG153      0.1354
     45  N         25.7560  -27.2720   20.9960 N.3   168  VAL168     -0.1231
     46  CA        26.0480  -25.8900   21.4120 C.3   168  VAL168      0.1692
     47  C         25.2750  -25.4900   22.6720 C.2   168  VAL168      0.2592
     48  O         24.1460  -25.9910   22.9080 O.2   168  VAL168     -0.2718
     49  CB        25.7040  -24.9370   20.2850 C.3   168  VAL168      0.0266
     50  CG1       26.4470  -25.3200   19.0610 C.3   168  VAL168      0.0020
     51  CG2       24.1780  -24.9680   20.0080 C.3   168  VAL168      0.0020
     52  N         25.8530  -24.5960   23.4860 N.am  169  CYS169     -0.1956
     53  CA        25.1220  -24.1390   24.6620 C.3   169  CYS169      0.1843
     54  C         25.1410  -22.5900   24.8890 C.2   169  CYS169      0.2625
     55  O         25.7240  -21.8510   24.0610 O.2   169  CYS169     -0.2714
     56  CB        25.5800  -24.9280   25.8930 C.3   169  CYS169      0.0997
     57  SG        24.3070  -25.0780   27.1530 S.3   169  CYS169     -0.0797
     58  N         24.4890  -22.1060   25.9610 N.am  170  PHE170     -0.1960
     59  CA        24.4420  -20.6320   26.1980 C.3   170  PHE170      0.1771
     60  C         25.8580  -20.0230   26.1110 C.2   170  PHE170      0.2620
     61  O         26.7730  -20.4600   26.7850 O.2   170  PHE170     -0.2715
     62  CB        23.8800  -20.2580   27.5750 C.3   170  PHE170      0.0574
     63  CG        22.5980  -21.0200   27.9790 C.ar  170  PHE170     -0.0200
     64  CD1       21.4840  -21.0900   27.1570 C.ar  170  PHE170     -0.0042
     65  CD2       22.5190  -21.6090   29.2210 C.ar  170  PHE170     -0.0042
     66  CE1       20.3220  -21.7910   27.5730 C.ar  170  PHE170     -0.0003
     67  CE2       21.4050  -22.2510   29.6400 C.ar  170  PHE170     -0.0003
     68  CZ        20.3040  -22.3540   28.8220 C.ar  170  PHE170     -0.0000
     69  N         26.0400  -19.0170   25.2710 N.am  171  GLY171     -0.1954
     70  CA        27.3490  -18.4300   25.1690 C.3   171  GLY171      0.1869
     71  C         27.9270  -18.8030   23.8320 C.2   171  GLY171      0.2309
     72  O         28.8990  -18.2070   23.4210 O.2   171  GLY171     -0.2863
     73  N         25.8000  -18.9280   21.0310 N.3   173  SER173     -0.1217
     74  CA        25.0360  -18.1490   20.0650 C.3   173  SER173      0.1889
     75  C         25.9550  -17.0890   19.3910 C.2   173  SER173      0.2288
     76  O         26.8230  -16.5510   20.0480 O.2   173  SER173     -0.2866
     77  CB        23.9100  -17.3810   20.7720 C.3   173  SER173      0.2089
     78  OG        22.8260  -18.2250   21.0560 O.3   173  SER173     -0.2183
     79  N         25.2730  -19.7980   15.0500 N.3   187  ALA187     -0.1231
     80  CA        24.4960  -20.4970   16.0830 C.3   187  ALA187      0.1694
     81  C         23.3730  -19.6300   16.6070 C.2   187  ALA187      0.2593
     82  O         23.6260  -18.4670   16.9880 O.2   187  ALA187     -0.2718
     83  CB        25.4210  -20.8720   17.1460 C.3   187  ALA187      0.0304
     84  N         22.1550  -20.1470   16.6070 N.am  188  SER188     -0.1938
     85  CA        21.0100  -19.3500   16.8940 C.3   188  SER188      0.2055
     86  C         20.0960  -19.8350   18.0400 C.2   188  SER188      0.2643
     87  O         19.7300  -19.0530   18.9550 O.2   188  SER188     -0.2714
     88  CB        20.1960  -19.1740   15.6250 C.3   188  SER188      0.2130
     89  OG        18.9380  -18.5470   15.8230 O.3   188  SER188     -0.2179
     90  N         19.6640  -21.1050   17.9490 N.am  189  PHE189     -0.1959
     91  CA        18.8600  -21.6080   19.0220 C.3   189  PHE189      0.1771
     92  C         19.0320  -23.1790   19.1900 C.2   189  PHE189      0.2619
     93  O         19.7070  -23.8500   18.3490 O.2   189  PHE189     -0.2715
     94  CB        17.4090  -21.1040   18.9180 C.3   189  PHE189      0.0574
     95  CG        16.6090  -21.6950   17.7960 C.ar  189  PHE189     -0.0200
     96  CD1       16.4680  -21.0110   16.5890 C.ar  189  PHE189     -0.0042
     97  CD2       16.0170  -22.9630   17.9340 C.ar  189  PHE189     -0.0042
     98  CE1       15.6860  -21.5440   15.5440 C.ar  189  PHE189     -0.0003
     99  CE2       15.2550  -23.5170   16.9040 C.ar  189  PHE189     -0.0003
    100  CZ        15.0790  -22.8240   15.6960 C.ar  189  PHE189     -0.0000
    101  N         18.5680  -23.6790   20.3210 N.am  190  VAL190     -0.1963
    102  CA        18.5920  -25.1280   20.6910 C.3   190  VAL190      0.1727
    103  C         17.1780  -25.4090   21.2230 C.2   190  VAL190      0.2616
    104  O         16.4650  -24.4470   21.5420 O.2   190  VAL190     -0.2715
    105  CB        19.6820  -25.5410   21.7330 C.3   190  VAL190      0.0290
    106  CG1       21.0860  -25.3660   21.2650 C.3   190  VAL190      0.0023
    107  CG2       19.5820  -24.8470   23.1180 C.3   190  VAL190      0.0023
    108  N         16.7310  -26.6990   21.2740 N.am  191  ARG191     -0.1977
    109  CA        15.3960  -27.0270   21.8340 C.3   191  ARG191      0.1597
    110  C         15.5610  -28.2130   22.8130 C.2   191  ARG191      0.2287
    111  O         16.4730  -29.0030   22.6330 O.2   191  ARG191     -0.2864
    112  CB        14.4280  -27.4100   20.7380 C.3   191  ARG191      0.0334
    113  CG        13.6610  -26.2800   19.9460 C.3   191  ARG191      0.0492
    114  CD        13.2680  -26.7590   18.5700 C.3   191  ARG191      0.2205
    115  NE        14.5210  -26.9410   17.8540 N.pl3 191  ARG191     -0.0865
    116  CZ        14.8600  -27.9540   17.0440 C.cat 191  ARG191      0.5346
    117  NH1       14.0300  -28.9560   16.7740 N.pl3 191  ARG191      0.1354
    118  NH2       16.0780  -27.9550   16.5080 N.pl3 191  ARG191      0.1354
    119  N         16.5660  -27.8500   25.7580 N.3   193  GLY193     -0.1225
    120  CA        17.7620  -27.5390   26.4920 C.3   193  GLY193      0.1811
    121  C         18.9640  -27.8780   25.6550 C.2   193  GLY193      0.2280
    122  O         18.8550  -28.4080   24.5610 O.2   193  GLY193     -0.2866
@<TRIPOS>BOND
     1    36    37    2
     2    36    35    1
     3    35    38    1
     4    35    34    1
     5    38    39    1
     6    39    40    1
     7    40    41    1
     8    41    42    2
     9    25    23   am
    10    44    42    1
    11    42    43    1
    12    29    28    2
    13    24    23    2
    14    23    22    1
    15    28    27    1
    16    79    80    1
    17    22    19    1
    18    98   100   ar
    19    98    96   ar
    20    88    89    1
    21    88    85    1
    22    27    26    1
    23    27    30    1
    24    21    20    2
    25   100    99   ar
    26    20    26   am
    27    20    19    1
    28    80    81    1
    29    80    83    1
    30    19    18    1
    31   118   116    1
    32    30    31    1
    33    96    95   ar
    34    84    81   am
    35    84    85    1
    36    81    82    2
    37    18    13   am
    38   117   116    1
    39    85    86    1
    40    99    97   ar
    41   116   115    2
    42    15    17    1
    43    15    12    1
    44    15    16    1
    45    11    12    1
    46    95    97   ar
    47    95    94    1
    48     1     2    1
    49   115   114    1
    50    90    86   am
    51    90    91    1
    52    13    12    1
    53    13    14    2
    54    86    87    2
    55    31    33    1
    56    31    32    1
    57    93    92    2
    58   114   113    1
    59    94    91    1
    60    91    92    1
    61    50    49    1
    62     2     5    1
    63     2     3    1
    64    92   101   am
    65    75    76    2
    66    75    74    1
    67     5     6    1
    68   113   112    1
    69    51    49    1
    70    74    77    1
    71    74    73    1
    72     3     4    2
    73    49    46    1
    74   101   102    1
    75   102   103    1
    76   102   105    1
    77     6     8   ar
    78     6     7   ar
    79   112   109    1
    80    77    78    1
    81    45    46    1
    82     8    10   ar
    83   103   108   am
    84   103   104    2
    85   106   105    1
    86   108   109    1
    87    46    47    1
    88   105   107    1
    89   109   110    1
    90     7     9   ar
    91    10     9   ar
    92   111   110    2
    93    47    48    2
    94    47    52   am
    95    72    71    2
    96    52    53    1
    97    71    70    1
    98    55    54    2
    99   122   121    2
   100    53    54    1
   101    53    56    1
   102    54    58   am
   103    70    69    1
   104    69    60   am
   105   121   120    1
   106   119   120    1
   107    56    57    1
   108    58    59    1
   109    60    59    1
   110    60    61    2
   111    59    62    1
   112    64    66   ar
   113    64    63   ar
   114    66    68   ar
   115    62    63    1
   116    63    65   ar
   117    68    67   ar
   118    65    67   ar
