@<TRIPOS>MOLECULE
tmp/1h1dA01.pdb
 126 125 0 0 0
SMALL
GASTEIGER

@<TRIPOS>ATOM
      1  N        -35.4250   59.9850   45.4570 N.3    36  TRP36      -0.1241
      2  CA       -34.3310   60.6120   46.1860 C.3    36  TRP36       0.1605
      3  C        -33.0440   60.2620   45.4480 C.2    36  TRP36       0.2264
      4  O        -32.9010   59.1520   44.9370 O.2    36  TRP36      -0.2867
      5  CB       -34.2440   60.0530   47.6060 C.3    36  TRP36       0.0550
      6  CG       -33.1640   60.6940   48.4340 C.ar   36  TRP36       0.0003
      7  CD1      -33.2810   61.8070   49.2270 C.ar   36  TRP36       0.0946
      8  CD2      -31.7960   60.2840   48.5210 C.ar   36  TRP36       0.0152
      9  NE1      -32.0690   62.1120   49.8010 N.ar   36  TRP36      -0.2442
     10  CE2      -31.1390   61.1950   49.3850 C.ar   36  TRP36       0.0810
     11  CE3      -31.0570   59.2350   47.9520 C.ar   36  TRP36       0.0012
     12  CZ2      -29.7790   61.0890   49.6920 C.ar   36  TRP36       0.0191
     13  CZ3      -29.7010   59.1280   48.2580 C.ar   36  TRP36       0.0001
     14  CH2      -29.0770   60.0510   49.1210 C.ar   36  TRP36       0.0015
     15  N        -28.5480   61.1890   45.5120 N.3    38  MET38      -0.1230
     16  CA       -27.4750   61.7940   46.2870 C.3    38  MET38       0.1702
     17  C        -26.8160   63.0640   45.7370 C.2    38  MET38       0.2592
     18  O        -25.5960   63.1950   45.7780 O.2    38  MET38      -0.2718
     19  CB       -26.4070   60.7400   46.5840 C.3    38  MET38       0.0401
     20  CG       -25.8260   60.0720   45.3490 C.3    38  MET38       0.0596
     21  SD       -24.5810   58.8490   45.7860 S.3    38  MET38      -0.1393
     22  CE       -24.5330   57.8430   44.2840 C.3    38  MET38       0.0692
     23  N        -27.6220   63.9980   45.2320 N.am   39  ASN39      -0.1974
     24  CA       -27.1020   65.2810   44.7390 C.3    39  ASN39       0.1688
     25  C        -26.9460   66.1380   45.9970 C.2    39  ASN39       0.2292
     26  O        -27.6990   65.9590   46.9590 O.2    39  ASN39      -0.2864
     27  CB       -28.1110   65.9760   43.8230 C.3    39  ASN39       0.1181
     28  CG       -28.6130   65.0840   42.7170 C.2    39  ASN39       0.2629
     29  OD1      -29.8190   64.9370   42.5380 O.2    39  ASN39      -0.2716
     30  ND2      -27.6970   64.4940   41.9600 N.am   39  ASN39      -0.0877
     31  N        -16.9190   64.9190   47.8010 N.3   139  ASP139     -0.1225
     32  CA       -18.2590   64.3670   47.8770 C.3   139  ASP139      0.1805
     33  C        -18.3720   62.9800   47.2330 C.2   139  ASP139      0.2598
     34  O        -19.3650   62.6700   46.5780 O.2   139  ASP139     -0.2718
     35  CB       -19.2500   65.3470   47.2360 C.3   139  ASP139      0.1424
     36  CG       -20.7020   64.9880   47.5160 C.2   139  ASP139      0.3668
     37  OD1      -20.9930   64.4230   48.5930 O.co2 139  ASP139     -0.2456
     38  OD2      -21.5610   65.2930   46.6630 O.co2 139  ASP139     -0.2456
     39  N        -17.3450   62.1530   47.4120 N.am  140  HIS140     -0.1961
     40  CA       -17.3720   60.7950   46.8830 C.3   140  HIS140      0.1787
     41  C        -17.5700   59.8420   48.0700 C.2   140  HIS140      0.2620
     42  O        -18.1990   60.2390   49.0530 O.2   140  HIS140     -0.2715
     43  CB       -16.0940   60.4950   46.0740 C.3   140  HIS140      0.0785
     44  CG       -14.8070   60.8230   46.7750 C.ar  140  HIS140      0.0821
     45  ND1      -14.7110   61.7710   47.7710 N.ar  140  HIS140     -0.2267
     46  CD2      -13.5490   60.3580   46.5770 C.ar  140  HIS140      0.1154
     47  CE1      -13.4510   61.8740   48.1560 C.ar  140  HIS140      0.1986
     48  NE2      -12.7260   61.0280   47.4470 N.ar  140  HIS140     -0.2212
     49  N        -17.0830   58.6030   48.0050 N.am  141  TRP141     -0.1960
     50  CA       -17.2790   57.6940   49.1410 C.3   141  TRP141      0.1771
     51  C        -16.5690   58.2950   50.3570 C.2   141  TRP141      0.2619
     52  O        -15.4090   58.7080   50.2720 O.2   141  TRP141     -0.2715
     53  CB       -16.7520   56.2910   48.8220 C.3   141  TRP141      0.0590
     54  CG       -17.5550   55.5460   47.7700 C.ar  141  TRP141      0.0006
     55  CD1      -17.1650   54.4210   47.0930 C.ar  141  TRP141      0.0946
     56  CD2      -18.8560   55.8890   47.2510 C.ar  141  TRP141      0.0152
     57  NE1      -18.1300   54.0500   46.1850 N.ar  141  TRP141     -0.2442
     58  CE2      -19.1780   54.9300   46.2610 C.ar  141  TRP141      0.0810
     59  CE3      -19.7780   56.9130   47.5240 C.ar  141  TRP141      0.0012
     60  CZ2      -20.3820   54.9640   45.5420 C.ar  141  TRP141      0.0191
     61  CZ3      -20.9790   56.9460   46.8050 C.ar  141  TRP141      0.0001
     62  CH2      -21.2660   55.9770   45.8270 C.ar  141  TRP141      0.0015
     63  N        -17.2820   58.3430   51.4810 N.am  142  LYS142     -0.1977
     64  CA       -16.7810   58.9590   52.7080 C.3   142  LYS142      0.1596
     65  C        -15.4790   58.4280   53.3000 C.2   142  LYS142      0.2287
     66  O        -14.7590   59.1740   53.9700 O.2   142  LYS142     -0.2864
     67  CB       -17.8840   58.9520   53.7770 C.3   142  LYS142      0.0298
     68  CG       -19.2590   59.4100   53.2550 C.3   142  LYS142      0.0038
     69  CD       -19.1400   60.6390   52.3450 C.3   142  LYS142      0.0206
     70  CE       -20.4070   60.8630   51.5260 C.3   142  LYS142      0.1093
     71  NZ       -20.1930   61.8140   50.3960 N.3   142  LYS142     -0.1314
     72  N        -18.7710   67.6060   51.8940 N.3   167  ASP167     -0.1225
     73  CA       -20.1880   67.3380   52.0960 C.3   167  ASP167      0.1805
     74  C        -20.3720   66.1410   53.0400 C.2   167  ASP167      0.2597
     75  O        -19.4650   65.3200   53.2000 O.2   167  ASP167     -0.2718
     76  CB       -20.8500   67.0490   50.7390 C.3   167  ASP167      0.1424
     77  CG       -22.3680   66.9760   50.8230 C.2   167  ASP167      0.3668
     78  OD1      -22.9560   67.6680   51.6750 O.co2 167  ASP167     -0.2456
     79  OD2      -22.9780   66.2410   50.0190 O.co2 167  ASP167     -0.2456
     80  N        -21.5380   66.0670   53.6800 N.am  168  ASN168     -0.1974
     81  CA       -21.8890   64.9580   54.5690 C.3   168  ASN168      0.1688
     82  C        -20.9950   64.7040   55.7670 C.2   168  ASN168      0.2292
     83  O        -20.7780   63.5470   56.1330 O.2   168  ASN168     -0.2864
     84  CB       -21.9790   63.6610   53.7590 C.3   168  ASN168      0.1181
     85  CG       -22.7820   63.8280   52.4920 C.2   168  ASN168      0.2629
     86  OD1      -22.2400   63.7750   51.3880 O.2   168  ASN168     -0.2716
     87  ND2      -24.0820   64.0420   52.6420 N.am  168  ASN168     -0.0877
     88  N        -24.0130   63.5930   58.1890 N.3   171  VAL171     -0.1231
     89  CA       -24.7360   62.4320   57.6690 C.3   171  VAL171      0.1678
     90  C        -24.4160   62.2080   56.1960 C.2   171  VAL171      0.2434
     91  O        -24.6370   63.0980   55.3770 O.2   171  VAL171     -0.2733
     92  CB       -26.2600   62.6290   57.7790 C.3   171  VAL171      0.0265
     93  CG1      -26.9740   61.5080   57.0400 C.3   171  VAL171      0.0020
     94  CG2      -26.6830   62.6680   59.2390 C.3   171  VAL171      0.0020
     95  N        -23.9270   61.0080   55.8260 N.am  172  PRO172     -0.2729
     96  CA       -23.6220   59.7960   56.6030 C.3   172  PRO172      0.1401
     97  C        -22.4720   59.9480   57.5970 C.2   172  PRO172      0.2269
     98  O        -22.2590   59.0770   58.4430 O.2   172  PRO172     -0.2865
     99  CB       -23.2710   58.7680   55.5280 C.3   172  PRO172      0.0296
    100  CG       -23.9990   59.2450   54.3340 C.3   172  PRO172      0.0237
    101  CD       -23.7820   60.7330   54.3880 C.3   172  PRO172      0.0939
    102  N        -29.7190   67.5240   55.0380 N.3   196  LEU196     -0.1231
    103  CA       -29.4600   66.4800   54.0560 C.3   196  LEU196      0.1693
    104  C        -30.3610   66.7470   52.8460 C.2   196  LEU196      0.2591
    105  O        -31.5310   67.1100   52.9980 O.2   196  LEU196     -0.2718
    106  CB       -29.7700   65.1020   54.6480 C.3   196  LEU196      0.0284
    107  CG       -29.3420   63.8830   53.8310 C.3   196  LEU196      0.0019
    108  CD1      -27.8210   63.8120   53.7830 C.3   196  LEU196      0.0001
    109  CD2      -29.9140   62.6220   54.4630 C.3   196  LEU196      0.0001
    110  N        -29.8090   66.5820   51.6480 N.am  197  GLU197     -0.1979
    111  CA       -30.5590   66.8180   50.4210 C.3   197  GLU197      0.1602
    112  C        -31.9130   66.1190   50.3980 C.2   197  GLU197      0.2287
    113  O        -32.0180   64.9100   50.6540 O.2   197  GLU197     -0.2864
    114  CB       -29.7490   66.3670   49.1990 C.3   197  GLU197      0.0415
    115  CG       -29.3010   64.9120   49.2630 C.3   197  GLU197      0.1163
    116  CD       -27.8520   64.7670   49.6820 C.2   197  GLU197      0.3649
    117  OE1      -27.4120   65.5140   50.5850 O.co2 197  GLU197     -0.2457
    118  OE2      -27.1580   63.9010   49.1130 O.co2 197  GLU197     -0.2457
    119  N        -34.4550   66.3230   52.4120 N.3   199  MET199     -0.1245
    120  CA       -34.9170   65.8100   53.7050 C.3   199  MET199      0.1570
    121  C        -34.7520   66.7930   54.8720 C.2   199  MET199      0.2261
    122  O        -34.0360   67.7900   54.7710 O.2   199  MET199     -0.2867
    123  CB       -34.2060   64.4910   54.0290 C.3   199  MET199      0.0387
    124  CG       -34.8320   63.2830   53.3510 C.3   199  MET199      0.0595
    125  SD       -33.8520   61.7830   53.4830 S.3   199  MET199     -0.1393
    126  CE       -34.3230   61.2080   55.1130 C.3   199  MET199      0.0692
@<TRIPOS>BOND
     1    30    28   am
     2    29    28    2
     3    28    27    1
     4    27    24    1
     5    22    21    1
     6    24    23    1
     7    24    25    1
     8     4     3    2
     9    23    17   am
    10    20    21    1
    11    20    19    1
    12     3     2    1
    13     1     2    1
    14    15    16    1
    15    60    62   ar
    16    60    58   ar
    17    17    18    2
    18    17    16    1
    19    62    61   ar
    20    25    26    2
    21    43    44    1
    22    43    40    1
    23    57    58   ar
    24    57    55   ar
    25     2     5    1
    26    58    56   ar
    27    16    19    1
    28    46    44   ar
    29    46    48   ar
    30    34    33    2
    31    38    36   ar
    32    44    45   ar
    33    61    59   ar
    34    40    39    1
    35    40    41    1
    36    55    54   ar
    37    33    39   am
    38    33    32    1
    39    35    36    1
    40    35    32    1
    41    56    59   ar
    42    56    54   ar
    43    48    47   ar
    44    36    37   ar
    45     5     6    1
    46    54    53    1
    47    45    47   ar
    48    31    32    1
    49    11    13   ar
    50    11     8   ar
    51    49    41   am
    52    49    50    1
    53    41    42    2
    54    13    14   ar
    55     6     8   ar
    56     6     7   ar
    57     8    10   ar
    58    53    50    1
    59   118   116   ar
    60    14    12   ar
    61    50    51    1
    62   114   115    1
    63   114   111    1
    64     7     9   ar
    65   115   116    1
    66    10    12   ar
    67    10     9   ar
    68   116   117   ar
    69    79    77   ar
    70    52    51    2
    71    51    63   am
    72    71    70    1
    73   112   111    1
    74   112   113    2
    75   111   110    1
    76    76    77    1
    77    76    73    1
    78    77    78   ar
    79    86    85    2
    80    63    64    1
    81    70    69    1
    82   110   104   am
    83    72    73    1
    84    73    74    1
    85    69    68    1
    86   119   120    1
    87    85    87   am
    88    85    84    1
    89    64    65    1
    90    64    67    1
    91   104   105    2
    92   104   103    1
    93    74    75    2
    94    74    80   am
    95    68    67    1
    96    65    66    2
    97   124   125    1
    98   124   123    1
    99   125   126    1
   100    80    81    1
   101   120   123    1
   102   120   121    1
   103    84    81    1
   104   108   107    1
   105   107   109    1
   106   107   106    1
   107   103   106    1
   108   103   102    1
   109   100   101    1
   110   100    99    1
   111   101    95    1
   112    81    82    1
   113   122   121    2
   114    91    90    2
   115    99    96    1
   116    82    83    2
   117    95    90   am
   118    95    96    1
   119    90    89    1
   120    96    97    1
   121    93    92    1
   122    97    98    2
   123    89    92    1
   124    89    88    1
   125    92    94    1
