@<TRIPOS>MOLECULE
tmp/1h1hA00.pdb
 98 94 0 0 0
SMALL
GASTEIGER

@<TRIPOS>ATOM
      1  N         25.5670   44.7240   -0.1340 N.3     1  MET1       -0.1245
      2  CA        26.1280   43.3940    0.2360 C.3     1  MET1        0.1570
      3  C         25.3050   42.6880    1.3050 C.2     1  MET1        0.2261
      4  O         25.1150   43.2110    2.4050 O.2     1  MET1       -0.2867
      5  CB        27.5640   43.5470    0.7440 C.3     1  MET1        0.0387
      6  CG        28.6200   43.6410   -0.3420 C.3     1  MET1        0.0595
      7  SD        28.9970   42.0400   -1.0790 S.3     1  MET1       -0.1393
      8  CE        30.2030   41.3870    0.1000 C.3     1  MET1        0.0692
      9  N         19.7580   34.0800    0.7130 N.3     8  ARG8       -0.1245
     10  CA        19.0640   35.1240   -0.0350 C.3     8  ARG8        0.1563
     11  C         17.6030   35.2410    0.4180 C.2     8  ARG8        0.2260
     12  O         17.0760   36.3430    0.5470 O.2     8  ARG8       -0.2867
     13  CB        19.1320   34.8460   -1.5440 C.3     8  ARG8        0.0307
     14  CG        20.5140   35.0830   -2.1600 C.3     8  ARG8        0.0489
     15  CD        20.4770   35.0240   -3.6900 C.3     8  ARG8        0.2205
     16  NE        20.0650   33.7090   -4.1710 N.pl3   8  ARG8       -0.0865
     17  CZ        19.7560   33.4210   -5.4330 C.cat   8  ARG8        0.5346
     18  NH1       19.8030   34.3570   -6.3760 N.pl3   8  ARG8        0.1354
     19  NH2       19.4020   32.1850   -5.7520 N.pl3   8  ARG8        0.1354
     20  N         17.3860   36.9550    3.9660 N.3    11  TRP11      -0.1241
     21  CA        17.6500   38.3870    3.8950 C.3    11  TRP11       0.1605
     22  C         16.4500   39.1080    3.2570 C.2    11  TRP11       0.2264
     23  O         16.1580   40.2630    3.5910 O.2    11  TRP11      -0.2867
     24  CB        18.9290   38.6370    3.0830 C.3    11  TRP11       0.0550
     25  CG        19.4740   40.0400    3.1690 C.ar   11  TRP11       0.0003
     26  CD1       19.7900   40.8560    2.1200 C.ar   11  TRP11       0.0946
     27  CD2       19.7910   40.7800    4.3580 C.ar   11  TRP11       0.0152
     28  NE1       20.2810   42.0540    2.5770 N.ar   11  TRP11      -0.2442
     29  CE2       20.2930   42.0360    3.9460 C.ar   11  TRP11       0.0810
     30  CE3       19.7020   40.5040    5.7280 C.ar   11  TRP11       0.0012
     31  CZ2       20.7070   43.0170    4.8580 C.ar   11  TRP11       0.0191
     32  CZ3       20.1130   41.4790    6.6390 C.ar   11  TRP11       0.0001
     33  CH2       20.6090   42.7200    6.1970 C.ar   11  TRP11       0.0015
     34  N         14.3980   42.0630    5.1380 N.3    15  GLN15      -0.1231
     35  CA        14.2400   43.3840    4.5320 C.3    15  GLN15       0.1698
     36  C         12.8500   43.7410    4.0120 C.2    15  GLN15       0.2592
     37  O         12.4830   44.9170    4.0100 O.2    15  GLN15      -0.2718
     38  CB        15.1970   43.5610    3.3420 C.3    15  GLN15       0.0381
     39  CG        16.6830   43.5610    3.6390 C.3    15  GLN15       0.0905
     40  CD        17.4740   44.2850    2.5560 C.2    15  GLN15       0.2608
     41  OE1       17.9880   45.3860    2.7740 O.2    15  GLN15      -0.2717
     42  NE2       17.5580   43.6780    1.3770 N.am   15  GLN15      -0.0878
     43  N         12.0750   42.7530    3.5690 N.am   16  HIS16      -0.1976
     44  CA        10.7910   43.0700    2.9420 C.3    16  HIS16       0.1656
     45  C          9.4870   42.4210    3.4150 C.2    16  HIS16       0.2291
     46  O          8.4410   42.6790    2.8230 O.2    16  HIS16      -0.2864
     47  CB        10.9060   42.8280    1.4290 C.3    16  HIS16       0.0771
     48  CG        12.0600   43.5280    0.7760 C.ar   16  HIS16       0.0820
     49  ND1       12.1430   44.9000    0.6730 N.ar   16  HIS16      -0.2267
     50  CD2       13.1820   43.0400    0.1900 C.ar   16  HIS16       0.1154
     51  CE1       13.2680   45.2270    0.0570 C.ar   16  HIS16       0.1986
     52  NE2       13.9160   44.1160   -0.2450 N.ar   16  HIS16      -0.2212
     53  N         25.4740   47.7500    6.9000 N.3    35  ARG35      -0.1245
     54  CA        25.8090   48.5890    5.7500 C.3    35  ARG35       0.1563
     55  C         26.8510   49.6530    6.0860 C.2    35  ARG35       0.2260
     56  O         27.1770   49.8670    7.2540 O.2    35  ARG35      -0.2867
     57  CB        24.5470   49.2760    5.2180 C.3    35  ARG35       0.0307
     58  CG        23.3820   48.3290    4.9670 C.3    35  ARG35       0.0489
     59  CD        22.1510   49.0340    4.4100 C.3    35  ARG35       0.2205
     60  NE        22.1850   49.1190    2.9530 N.pl3  35  ARG35      -0.0865
     61  CZ        22.4910   50.2180    2.2850 C.cat  35  ARG35       0.5346
     62  NH1       22.7800   51.3160    2.9490 N.pl3  35  ARG35       0.1354
     63  NH2       22.5190   50.2200    0.9620 N.pl3  35  ARG35       0.1354
     64  N         20.3660   52.9570    4.2820 N.3    39  LYS39      -0.1245
     65  CA        19.5940   52.6910    3.0730 C.3    39  LYS39       0.1561
     66  C         18.6610   53.8730    2.8020 C.2    39  LYS39       0.2260
     67  O         17.9560   54.3440    3.6920 O.2    39  LYS39      -0.2867
     68  CB        18.7900   51.3940    3.2350 C.3    39  LYS39       0.0271
     69  CG        18.4360   50.7240    1.9200 C.3    39  LYS39       0.0035
     70  CD        17.7660   49.3720    2.1380 C.3    39  LYS39       0.0206
     71  CE        17.4680   48.6900    0.8020 C.3    39  LYS39       0.1093
     72  NZ        16.7560   47.3890    0.9630 N.3    39  LYS39      -0.1314
     73  N         16.3360   38.3170  -17.2510 N.3    69  LEU69      -0.1245
     74  CA        15.9140   37.2870  -16.2970 C.3    69  LEU69       0.1561
     75  C         14.4280   36.9730  -16.4440 C.2    69  LEU69       0.2260
     76  O         13.5870   37.8660  -16.3380 O.2    69  LEU69      -0.2867
     77  CB        16.1710   37.7430  -14.8590 C.3    69  LEU69       0.0270
     78  CG        17.5960   37.7680  -14.3100 C.3    69  LEU69       0.0019
     79  CD1       18.4850   38.6320  -15.1800 C.3    69  LEU69       0.0001
     80  CD2       17.5600   38.2980  -12.8870 C.3    69  LEU69       0.0001
     81  N         14.3250   38.3900   -4.2800 N.3   129  HIS129     -0.1226
     82  CA        14.4800   39.8040   -4.6070 C.3   129  HIS129      0.1752
     83  C         13.1540   40.4810   -4.9610 C.2   129  HIS129      0.2595
     84  O         12.3110   39.8890   -5.6350 O.2   129  HIS129     -0.2718
     85  CB        15.4590   39.9420   -5.7820 C.3   129  HIS129      0.0759
     86  CG        15.6920   41.3530   -6.2180 C.ar  129  HIS129      0.0818
     87  ND1       16.2780   42.2970   -5.4020 N.ar  129  HIS129     -0.2268
     88  CD2       15.4030   41.9870   -7.3810 C.ar  129  HIS129      0.1154
     89  CE1       16.3370   43.4530   -6.0420 C.ar  129  HIS129      0.1986
     90  NE2       15.8130   43.2920   -7.2450 N.ar  129  HIS129     -0.2212
     91  N         12.9790   41.7160   -4.4940 N.am  130  LEU130     -0.1980
     92  CA        11.7760   42.5020   -4.7790 C.3   130  LEU130      0.1596
     93  C         12.1110   43.3710   -5.9950 C.2   130  LEU130      0.2287
     94  O         12.8590   44.3390   -5.8800 O.2   130  LEU130     -0.2864
     95  CB        11.4200   43.3890   -3.5740 C.3   130  LEU130      0.0297
     96  CG        10.2050   44.3140   -3.7410 C.3   130  LEU130      0.0022
     97  CD1        8.9680   43.4760   -4.0720 C.3   130  LEU130      0.0001
     98  CD2        9.9780   45.1310   -2.4670 C.3   130  LEU130      0.0001
@<TRIPOS>BOND
     1    73    74    1
     2    75    76    2
     3    75    74    1
     4    74    77    1
     5    79    78    1
     6    77    78    1
     7    78    80    1
     8    88    90   ar
     9    88    86   ar
    10    90    89   ar
    11    18    17    1
    12    86    85    1
    13    86    87   ar
    14    89    87   ar
    15    93    94    2
    16    93    92    1
    17    85    82    1
    18    19    17    1
    19    84    83    2
    20    17    16    2
    21    83    82    1
    22    83    91   am
    23    92    91    1
    24    92    95    1
    25    82    81    1
    26    16    15    1
    27    97    96    1
    28    96    95    1
    29    96    98    1
    30    15    14    1
    31    14    13    1
    32    13    10    1
    33     7     6    1
    34     7     8    1
    35     6     5    1
    36    52    51   ar
    37    52    50   ar
    38     1     2    1
    39    10    11    1
    40    10     9    1
    41    51    49   ar
    42    50    48   ar
    43     2     5    1
    44     2     3    1
    45    11    12    2
    46    49    48   ar
    47    48    47    1
    48    71    72    1
    49    71    70    1
    50    63    61    1
    51     3     4    2
    52    42    40   am
    53    47    44    1
    54    69    70    1
    55    69    68    1
    56    26    28   ar
    57    26    25   ar
    58    61    62    1
    59    61    60    2
    60    40    41    2
    61    40    39    1
    62    28    29   ar
    63    66    65    1
    64    66    67    2
    65    46    45    2
    66    44    45    1
    67    44    43    1
    68    60    59    1
    69    65    68    1
    70    65    64    1
    71    24    25    1
    72    24    21    1
    73    25    27   ar
    74    22    23    2
    75    22    21    1
    76    38    39    1
    77    38    35    1
    78    43    36   am
    79    21    20    1
    80    29    27   ar
    81    29    31   ar
    82    37    36    2
    83    36    35    1
    84    27    30   ar
    85    59    58    1
    86    35    34    1
    87    31    33   ar
    88    58    57    1
    89    57    54    1
    90    30    32   ar
    91    54    55    1
    92    54    53    1
    93    55    56    2
    94    33    32   ar
