@<TRIPOS>MOLECULE
tmp/1h1iB02.pdb
 219 208 0 0 0
SMALL
GASTEIGER

@<TRIPOS>ATOM
      1  N         80.1580   34.0050   13.5650 N.3    28  VAL28      -0.1245
      2  CA        81.1220   34.7890   14.3090 C.3    28  VAL28       0.1561
      3  C         81.3300   36.0040   13.4300 C.2    28  VAL28       0.2260
      4  O         82.0270   35.9240   12.3840 O.2    28  VAL28      -0.2867
      5  CB        82.4750   34.0090   14.5040 C.3    28  VAL28       0.0252
      6  CG1       83.4530   34.8570   15.2670 C.3    28  VAL28       0.0019
      7  CG2       82.2410   32.7040   15.2870 C.3    28  VAL28       0.0019
      8  N         81.2840   35.6030    9.5290 N.3    31  GLN31      -0.1245
      9  CA        81.6150   34.2220    9.1540 C.3    31  GLN31       0.1566
     10  C         80.5330   33.2780    9.6230 C.2    31  GLN31       0.2260
     11  O         80.0960   33.3680   10.7790 O.2    31  GLN31      -0.2867
     12  CB        82.9560   33.8040    9.7790 C.3    31  GLN31       0.0367
     13  CG        84.0930   34.7940    9.4800 C.3    31  GLN31       0.0905
     14  CD        85.3040   34.5790   10.3910 C.2    31  GLN31       0.2608
     15  OE1       85.2330   33.8170   11.3630 O.2    31  GLN31      -0.2717
     16  NE2       86.4010   35.2510   10.0830 N.am   31  GLN31      -0.0878
     17  N         79.8050   29.2990   10.2840 N.3    33  TYR33      -0.1241
     18  CA        80.4680   28.0310   10.4840 C.3    33  TYR33       0.1605
     19  C         79.4530   26.9020   10.4760 C.2    33  TYR33       0.2264
     20  O         78.4000   27.0070   11.1320 O.2    33  TYR33      -0.2867
     21  CB        81.1620   28.0440   11.8480 C.3    33  TYR33       0.0534
     22  CG        82.4080   28.8790   11.8890 C.ar   33  TYR33      -0.0201
     23  CD1       82.3320   30.2640   11.9990 C.ar   33  TYR33      -0.0009
     24  CD2       83.6710   28.2760   11.8370 C.ar   33  TYR33      -0.0009
     25  CE1       83.5080   31.0510   12.0390 C.ar   33  TYR33       0.0417
     26  CE2       84.8300   29.0390   11.8720 C.ar   33  TYR33       0.0417
     27  CZ        84.7350   30.4250   11.9730 C.ar   33  TYR33       0.1957
     28  OH        85.8920   31.1990   11.9960 O.3    33  TYR33      -0.2866
     29  N         84.7080   21.0090    9.1710 N.3    49  MET49      -0.1245
     30  CA        83.7520   22.1310    9.1950 C.3    49  MET49       0.1570
     31  C         83.8690   23.0040    7.9510 C.2    49  MET49       0.2261
     32  O         84.9290   23.0470    7.3210 O.2    49  MET49      -0.2867
     33  CB        83.9410   22.9880   10.4500 C.3    49  MET49       0.0387
     34  CG        85.2560   23.6450   10.6030 C.3    49  MET49       0.0595
     35  SD        85.4040   24.5510   12.2260 S.3    49  MET49      -0.1393
     36  CE        86.7810   25.5170   11.7790 C.3    49  MET49       0.0692
     37  N         83.4560   27.0300    6.5530 N.3    51  THR51      -0.1218
     38  CA        83.2640   28.4320    6.9610 C.3    51  THR51       0.1862
     39  C         83.0180   29.2300    5.6870 C.2    51  THR51       0.2287
     40  O         83.8780   29.2380    4.8200 O.2    51  THR51      -0.2866
     41  CB        84.5240   28.9490    7.6490 C.3    51  THR51       0.1770
     42  OG1       84.7930   28.1220    8.7900 O.3    51  THR51      -0.2211
     43  CG2       84.2880   30.3690    8.2480 C.3    51  THR51       0.0375
     44  N         90.7000   37.5280   10.0430 N.3    60  GLY60      -0.1210
     45  CA        89.5320   36.7420   10.3570 C.3    60  GLY60       0.1956
     46  C         89.6320   36.0980   11.7300 C.2    60  GLY60       0.2611
     47  O         88.7050   35.4480   12.1580 O.2    60  GLY60      -0.2717
     48  N         90.7690   36.2920   12.4020 N.am   61  VAL61      -0.1979
     49  CA        91.0120   35.7370   13.7400 C.3    61  VAL61       0.1595
     50  C         92.3300   36.3070   14.2430 C.2    61  VAL61       0.2287
     51  O         93.2180   36.6090   13.4450 O.2    61  VAL61      -0.2864
     52  CB        91.0320   34.1860   13.7540 C.3    61  VAL61       0.0276
     53  CG1       92.1870   33.6020   12.8830 C.3    61  VAL61       0.0022
     54  CG2       91.1340   33.6780   15.1930 C.3    61  VAL61       0.0022
     55  N         97.2490   32.9080   16.7200 N.3    64  HIS64      -0.1241
     56  CA        97.2030   31.9580   17.8200 C.3    64  HIS64       0.1621
     57  C         97.8960   30.6560   17.4690 C.2    64  HIS64       0.2264
     58  O         98.2180   30.4250   16.2940 O.2    64  HIS64      -0.2867
     59  CB        95.7360   31.6620   18.1940 C.3    64  HIS64       0.0745
     60  CG        94.9490   31.0320   17.0960 C.ar   64  HIS64       0.0817
     61  ND1       94.4040   31.7620   16.0630 N.ar   64  HIS64      -0.2268
     62  CD2       94.6100   29.7400   16.8650 C.ar   64  HIS64       0.1154
     63  CE1       93.7920   30.9440   15.2240 C.ar   64  HIS64       0.1986
     64  NE2       93.8800   29.7130   15.7000 N.ar   64  HIS64      -0.2212
     65  N         97.6420   26.2040   18.4730 N.3    66  HIS66      -0.1241
     66  CA        97.0480   25.0630   19.1920 C.3    66  HIS66       0.1621
     67  C         98.1680   24.1250   19.5850 C.2    66  HIS66       0.2264
     68  O         99.0290   23.8230   18.7500 O.2    66  HIS66      -0.2867
     69  CB        96.0350   24.2960   18.3240 C.3    66  HIS66       0.0745
     70  CG        95.1210   25.1800   17.5390 C.ar   66  HIS66       0.0817
     71  ND1       94.1720   25.9850   18.1260 N.ar   66  HIS66      -0.2268
     72  CD2       95.0310   25.4050   16.2000 C.ar   66  HIS66       0.1154
     73  CE1       93.5180   26.6540   17.1870 C.ar   66  HIS66       0.1986
     74  NE2       94.0260   26.3260   16.0130 N.ar   66  HIS66      -0.2212
     75  N         95.7280   21.4710   12.5730 N.3    71  GLU71      -0.1231
     76  CA        94.7230   22.1770   11.7730 C.3    71  GLU71       0.1699
     77  C         95.0260   22.1360   10.2730 C.2    71  GLU71       0.2592
     78  O         96.1740   22.2110    9.8610 O.2    71  GLU71      -0.2718
     79  CB        94.6510   23.6200   12.2230 C.3    71  GLU71       0.0402
     80  CG        93.3590   24.3100   11.8570 C.3    71  GLU71       0.1161
     81  CD        92.9840   25.2690   12.9620 C.2    71  GLU71       0.3649
     82  OE1       93.7200   26.2760   13.1360 O.co2  71  GLU71      -0.2457
     83  OE2       91.9850   25.0030   13.6850 O.co2  71  GLU71      -0.2457
     84  N         93.9820   22.0150    9.4500 N.am   72  ASN72      -0.1960
     85  CA        94.1480   21.9290    7.9990 C.3    72  ASN72       0.1819
     86  C         93.1780   22.8890    7.3280 C.2    72  ASN72       0.2621
     87  O         92.0030   22.8710    7.6530 O.2    72  ASN72      -0.2715
     88  CB        93.8450   20.4990    7.5170 C.3    72  ASN72       0.1195
     89  CG        94.8140   19.4850    8.0800 C.2    72  ASN72       0.2630
     90  OD1       95.9220   19.3620    7.5890 O.2    72  ASN72      -0.2716
     91  ND2       94.4350   18.8250    9.1960 N.am   72  ASN72      -0.0877
     92  N         93.6740   23.7290    6.4120 N.am   73  PHE73      -0.1974
     93  CA        92.8540   24.7170    5.7060 C.3    73  PHE73       0.1639
     94  C         92.7580   24.2930    4.2660 C.2    73  PHE73       0.2290
     95  O         93.7890   24.0480    3.6100 O.2    73  PHE73      -0.2864
     96  CB        93.5130   26.0920    5.8170 C.3    73  PHE73       0.0560
     97  CG        93.4790   26.6430    7.2010 C.ar   73  PHE73      -0.0200
     98  CD1       94.4430   26.2760    8.1470 C.ar   73  PHE73      -0.0042
     99  CD2       92.4850   27.5330    7.5670 C.ar   73  PHE73      -0.0042
    100  CE1       94.3870   26.7660    9.4650 C.ar   73  PHE73      -0.0003
    101  CE2       92.4350   28.0510    8.8830 C.ar   73  PHE73      -0.0003
    102  CZ        93.3860   27.6630    9.8260 C.ar   73  PHE73      -0.0000
    103  N         94.3050   33.9960    9.4700 N.3   112  PHE112     -0.1241
    104  CA        93.8620   34.0290    8.0780 C.3   112  PHE112      0.1605
    105  C         93.0720   35.3120    7.8300 C.2   112  PHE112      0.2264
    106  O         92.7140   36.0220    8.7750 O.2   112  PHE112     -0.2867
    107  CB        92.9890   32.7950    7.7090 C.3   112  PHE112      0.0534
    108  CG        91.7130   32.6600    8.5180 C.ar  112  PHE112     -0.0203
    109  CD1       90.5420   33.3120    8.1140 C.ar  112  PHE112     -0.0042
    110  CD2       91.6780   31.8710    9.6800 C.ar  112  PHE112     -0.0042
    111  CE1       89.3400   33.1890    8.8520 C.ar  112  PHE112     -0.0003
    112  CE2       90.4910   31.7630   10.4310 C.ar  112  PHE112     -0.0003
    113  CZ        89.3320   32.4090   10.0270 C.ar  112  PHE112     -0.0000
    114  N         85.9420   27.9950    3.2320 N.3   121  MET121     -0.1230
    115  CA        87.1060   27.3330    3.8270 C.3   121  MET121      0.1702
    116  C         86.5690   26.0230    4.3740 C.2   121  MET121      0.2593
    117  O         85.5610   26.0300    5.0910 O.2   121  MET121     -0.2718
    118  CB        87.5630   28.1770    5.0320 C.3   121  MET121      0.0401
    119  CG        87.8100   29.6450    4.8200 C.3   121  MET121      0.0596
    120  SD        88.1860   30.4380    6.4410 S.3   121  MET121     -0.1393
    121  CE        89.9180   29.9240    6.6800 C.3   121  MET121      0.0692
    122  N         87.2440   24.9130    4.0970 N.am  122  THR122     -0.1939
    123  CA        86.9150   23.6540    4.7830 C.3   122  THR122      0.2028
    124  C         88.0500   23.4110    5.7720 C.2   122  THR122      0.2642
    125  O         89.2320   23.4070    5.3830 O.2   122  THR122     -0.2714
    126  CB        86.7630   22.5250    3.7790 C.3   122  THR122      0.1808
    127  OG1       85.5570   22.7130    3.0120 O.3   122  THR122     -0.2208
    128  CG2       86.5420   21.1460    4.5280 C.3   122  THR122      0.0379
    129  N         87.6980   23.2560    7.0510 N.am  123  GLY123     -0.1954
    130  CA        88.6840   23.0460    8.0980 C.3   123  GLY123      0.1869
    131  C         88.6260   21.5920    8.5290 C.2   123  GLY123      0.2309
    132  O         87.5140   21.0580    8.7560 O.2   123  GLY123     -0.2863
    133  N         90.2870   19.2920   11.4750 N.3   125  ILE125     -0.1245
    134  CA        91.0320   19.4860   12.7140 C.3   125  ILE125      0.1561
    135  C         91.0660   18.1420   13.4290 C.2   125  ILE125      0.2260
    136  O         90.0490   17.4180   13.5060 O.2   125  ILE125     -0.2867
    137  CB        90.4010   20.6180   13.6190 C.3   125  ILE125      0.0252
    138  CG1       90.2450   21.9240   12.8260 C.3   125  ILE125      0.0019
    139  CG2       91.2820   20.8960   14.8720 C.3   125  ILE125      0.0019
    140  CD1       88.8500   22.0800   12.2100 C.3   125  ILE125      0.0001
    141  N         87.1030   19.9640   18.5830 N.3   130  PHE130     -0.1241
    142  CA        87.5850   21.3390   18.5780 C.3   130  PHE130      0.1605
    143  C         86.4470   22.3610   18.4120 C.2   130  PHE130      0.2264
    144  O         86.5380   23.4650   18.9270 O.2   130  PHE130     -0.2867
    145  CB        88.6050   21.5290   17.4460 C.3   130  PHE130      0.0534
    146  CG        89.2780   22.8680   17.4830 C.ar  130  PHE130     -0.0203
    147  CD1       90.2000   23.1680   18.4830 C.ar  130  PHE130     -0.0042
    148  CD2       88.9630   23.8340   16.5310 C.ar  130  PHE130     -0.0042
    149  CE1       90.8200   24.4100   18.5370 C.ar  130  PHE130     -0.0003
    150  CE2       89.5780   25.0980   16.5730 C.ar  130  PHE130     -0.0003
    151  CZ        90.5000   25.3840   17.5950 C.ar  130  PHE130     -0.0000
    152  N         84.8460   25.2610   20.7280 N.3   133  LEU133     -0.1231
    153  CA        85.3210   26.6410   20.6910 C.3   133  LEU133      0.1693
    154  C         84.2920   27.5240   20.0030 C.2   133  LEU133      0.2592
    155  O         83.9340   28.5760   20.5330 O.2   133  LEU133     -0.2718
    156  CB        86.6920   26.7390   19.9660 C.3   133  LEU133      0.0284
    157  CG        87.1900   28.1550   19.6110 C.3   133  LEU133      0.0019
    158  CD1       87.4630   28.9700   20.8680 C.3   133  LEU133      0.0001
    159  CD2       88.4140   28.0910   18.6840 C.3   133  LEU133      0.0001
    160  N         83.7870   27.0740   18.8580 N.am  134  PHE134     -0.1976
    161  CA        82.8570   27.9020   18.0670 C.3   134  PHE134      0.1639
    162  C         81.4630   27.9610   18.6510 C.2   134  PHE134      0.2290
    163  O         80.7550   28.9420   18.4620 O.2   134  PHE134     -0.2864
    164  CB        82.8520   27.4760   16.6040 C.3   134  PHE134      0.0560
    165  CG        84.2020   27.5700   15.9940 C.ar  134  PHE134     -0.0200
    166  CD1       84.7240   28.8190   15.6430 C.ar  134  PHE134     -0.0042
    167  CD2       84.9740   26.4450   15.8230 C.ar  134  PHE134     -0.0042
    168  CE1       86.0380   28.9390   15.1190 C.ar  134  PHE134     -0.0003
    169  CE2       86.2720   26.5460   15.2900 C.ar  134  PHE134     -0.0003
    170  CZ        86.8010   27.8080   14.9470 C.ar  134  PHE134     -0.0000
    171  N         82.2120   30.8960   20.9680 N.3   137  LEU137     -0.1245
    172  CA        82.4420   32.1590   20.2530 C.3   137  LEU137      0.1561
    173  C         81.2790   32.6020   19.3780 C.2   137  LEU137      0.2260
    174  O         81.0470   33.8090   19.2200 O.2   137  LEU137     -0.2867
    175  CB        83.6910   32.0760   19.3680 C.3   137  LEU137      0.0270
    176  CG        85.0180   31.9720   20.1260 C.3   137  LEU137      0.0019
    177  CD1       86.1280   31.8910   19.1080 C.3   137  LEU137      0.0001
    178  CD2       85.2420   33.1110   21.1440 C.3   137  LEU137      0.0001
    179  N         87.9600   40.0700   13.0960 N.3   158  THR158     -0.1203
    180  CA        86.8120   39.2220   13.3940 C.3   158  THR158      0.1994
    181  C         87.1100   38.3330   14.6030 C.2   158  THR158      0.2618
    182  O         88.2450   37.8940   14.8060 O.2   158  THR158     -0.2717
    183  CB        86.4610   38.3260   12.1740 C.3   158  THR158      0.1784
    184  OG1       86.1450   39.1330   11.0310 O.3   158  THR158     -0.2211
    185  CG2       85.1730   37.5620   12.4220 C.3   158  THR158      0.0376
    186  N         86.0750   38.0830   15.4020 N.am  159  GLY159     -0.1942
    187  CA        86.1570   37.1470   16.5010 C.3   159  GLY159      0.1998
    188  C         86.4450   37.8410   17.8120 C.2   159  GLY159      0.2480
    189  O         86.2160   39.0530   17.9510 O.2   159  GLY159     -0.2729
    190  N         86.9580   37.0730   18.7740 N.am  160  PRO160     -0.2726
    191  CA        87.2910   37.6090   20.1010 C.3   160  PRO160      0.1402
    192  C         88.3430   38.7260   20.0190 C.2   160  PRO160      0.2269
    193  O         89.2440   38.6730   19.1510 O.2   160  PRO160     -0.2865
    194  CB        87.8590   36.3870   20.8340 C.3   160  PRO160      0.0296
    195  CG        88.2990   35.4490   19.7540 C.3   160  PRO160      0.0237
    196  CD        87.2790   35.6360   18.6570 C.3   160  PRO160      0.0939
    197  N         90.5400   36.5690   23.4860 N.3   165  ILE165     -0.1245
    198  CA        91.2680   35.4580   22.8530 C.3   165  ILE165      0.1561
    199  C         92.3980   34.9090   23.7530 C.2   165  ILE165      0.2260
    200  O         92.8520   33.7770   23.5430 O.2   165  ILE165     -0.2867
    201  CB        91.7600   35.7870   21.3850 C.3   165  ILE165      0.0252
    202  CG1       91.8160   34.4870   20.5440 C.3   165  ILE165      0.0019
    203  CG2       93.0990   36.5390   21.3990 C.3   165  ILE165      0.0019
    204  CD1       92.2470   34.6300   19.0470 C.3   165  ILE165      0.0001
    205  N         91.1990   31.5910   26.3460 N.3   168  LEU168     -0.1245
    206  CA        90.7110   30.4400   25.5470 C.3   168  LEU168      0.1561
    207  C         91.6490   29.2490   25.5310 C.2   168  LEU168      0.2260
    208  O         91.5540   28.3620   24.6700 O.2   168  LEU168     -0.2867
    209  CB        90.5750   30.8770   24.0830 C.3   168  LEU168      0.0270
    210  CG        89.6790   32.0650   23.7550 C.3   168  LEU168      0.0019
    211  CD1       89.2220   31.9400   22.3500 C.3   168  LEU168      0.0001
    212  CD2       88.4550   32.0710   24.7190 C.3   168  LEU168      0.0001
    213  N         93.4230   27.1090   22.4990 N.3   173  VAL173     -0.1245
    214  CA        93.7050   28.3100   21.7340 C.3   173  VAL173      0.1561
    215  C         94.6180   29.1770   22.5740 C.2   173  VAL173      0.2260
    216  O         94.2290   29.6340   23.6510 O.2   173  VAL173     -0.2867
    217  CB        92.4110   29.1000   21.3430 C.3   173  VAL173      0.0252
    218  CG1       92.7840   30.4380   20.6910 C.3   173  VAL173      0.0019
    219  CG2       91.5700   28.2710   20.3730 C.3   173  VAL173      0.0019
@<TRIPOS>BOND
     1   127   126    1
     2   114   115    1
     3    95    94    2
     4   126   128    1
     5   126   123    1
     6   115   116    1
     7   115   118    1
     8   122   116   am
     9   122   123    1
    10    94    93    1
    11   116   117    2
    12   123   124    1
    13    40    39    2
    14   119   118    1
    15   119   120    1
    16   125   124    2
    17    39    38    1
    18    93    96    1
    19    93    92    1
    20   124   129   am
    21    96    97    1
    22    92    86   am
    23   120   121    1
    24    37    38    1
    25    38    41    1
    26   129   130    1
    27    97    99   ar
    28    97    98   ar
    29    32    31    2
    30    86    87    2
    31    86    85    1
    32    88    85    1
    33    88    89    1
    34    99   101   ar
    35    90    89    2
    36    41    43    1
    37    41    42    1
    38   107   104    1
    39   107   108    1
    40   105   104    1
    41   105   106    2
    42    31    30    1
    43    85    84    1
    44   104   103    1
    45    89    91   am
    46   130   131    1
    47   109   108   ar
    48   109   111   ar
    49    98   100   ar
    50   108   110   ar
    51   131   132    2
    52   111   113   ar
    53   101   102   ar
    54     9     8    1
    55     9    10    1
    56     9    12    1
    57    29    30    1
    58    30    33    1
    59    84    77   am
    60   100   102   ar
    61    13    12    1
    62    13    14    1
    63    10    11    2
    64   110   112   ar
    65    78    77    2
    66   113   112   ar
    67    44    45    1
    68    16    14   am
    69    77    76    1
    70    17    18    1
    71    45    46    1
    72    14    15    2
    73    33    34    1
    74    19    18    1
    75    19    20    2
    76    18    21    1
    77    34    35    1
    78   184   183    1
    79   133   134    1
    80    46    47    2
    81    46    48   am
    82    76    79    1
    83    76    75    1
    84    36    35    1
    85    24    26   ar
    86    24    22   ar
    87    21    22    1
    88    80    79    1
    89    80    81    1
    90    26    27   ar
    91    22    23   ar
    92    27    28    1
    93    27    25   ar
    94    23    25   ar
    95   183   185    1
    96   183   180    1
    97   140   138    1
    98     4     3    2
    99    48    49    1
   100   134   135    1
   101   134   137    1
   102   138   137    1
   103    53    52    1
   104    81    82   ar
   105    81    83   ar
   106   179   180    1
   107   180   181    1
   108   135   136    2
   109     3     2    1
   110    51    50    2
   111     1     2    1
   112   137   139    1
   113    49    52    1
   114    49    50    1
   115    52    54    1
   116     2     5    1
   117     5     6    1
   118     5     7    1
   119   181   182    2
   120   181   186   am
   121   170   168   ar
   122   170   169   ar
   123   168   166   ar
   124    63    64   ar
   125    63    61   ar
   126   169   167   ar
   127   186   187    1
   128   166   165   ar
   129    64    62   ar
   130   167   165   ar
   131   165   164    1
   132    74    72   ar
   133    74    73   ar
   134    61    60   ar
   135    72    70   ar
   136    58    57    2
   137   187   188    1
   138   148   150   ar
   139   148   146   ar
   140   150   151   ar
   141   164   161    1
   142    55    56    1
   143    62    60   ar
   144    60    59    1
   145    73    71   ar
   146   145   146    1
   147   145   142    1
   148    57    56    1
   149   146   147   ar
   150    70    71   ar
   151    70    69    1
   152   151   149   ar
   153   188   189    2
   154   188   190   am
   155    56    59    1
   156   161   162    1
   157   161   160    1
   158    69    66    1
   159   143   142    1
   160   143   144    2
   161   163   162    2
   162    65    66    1
   163   147   149   ar
   164   142   141    1
   165   196   190    1
   166   196   195    1
   167   159   157    1
   168    68    67    2
   169   190   191    1
   170   160   154   am
   171   204   202    1
   172   177   176    1
   173   193   192    2
   174    66    67    1
   175   174   173    2
   176   175   176    1
   177   175   172    1
   178   173   172    1
   179   157   156    1
   180   157   158    1
   181   195   194    1
   182   156   153    1
   183   154   155    2
   184   154   153    1
   185   192   191    1
   186   191   194    1
   187   176   178    1
   188   172   171    1
   189   219   217    1
   190   202   201    1
   191   218   217    1
   192   153   152    1
   193   217   214    1
   194   201   203    1
   195   201   198    1
   196   214   213    1
   197   214   215    1
   198   211   210    1
   199   215   216    2
   200   198   197    1
   201   198   199    1
   202   200   199    2
   203   210   209    1
   204   210   212    1
   205   209   206    1
   206   208   207    2
   207   207   206    1
   208   206   205    1
