@<TRIPOS>MOLECULE
tmp/1h1iB05.pdb
 92 87 0 0 0
SMALL
GASTEIGER

@<TRIPOS>ATOM
      1  N         93.8000   34.5030    2.6220 N.3    81  GLN81      -0.1245
      2  CA        95.2370   34.4600    2.9420 C.3    81  GLN81       0.1566
      3  C         95.4460   33.6740    4.2340 C.2    81  GLN81       0.2260
      4  O         94.6330   33.7890    5.1950 O.2    81  GLN81      -0.2867
      5  CB        95.7960   35.8800    3.0530 C.3    81  GLN81       0.0367
      6  CG        97.3100   35.9280    3.2130 C.3    81  GLN81       0.0905
      7  CD        97.9350   37.2120    2.6840 C.2    81  GLN81       0.2608
      8  OE1       99.1790   37.3840    2.7560 O.2    81  GLN81      -0.2717
      9  NE2       97.1090   38.1190    2.1770 N.am   81  GLN81      -0.0878
     10  N         98.5840   32.7920    7.1330 N.3    83  TRP83      -0.1241
     11  CA        99.9540   33.0880    7.5840 C.3    83  TRP83       0.1605
     12  C        100.3170   32.0120    8.6010 C.2    83  TRP83       0.2264
     13  O         99.4710   31.6090    9.3850 O.2    83  TRP83      -0.2867
     14  CB       100.0420   34.4310    8.3160 C.3    83  TRP83       0.0550
     15  CG        99.9070   35.6970    7.5140 C.ar   83  TRP83       0.0003
     16  CD1      100.9080   36.5460    7.1350 C.ar   83  TRP83       0.0946
     17  CD2       98.6800   36.3200    7.1070 C.ar   83  TRP83       0.0152
     18  NE1      100.3870   37.6240    6.4540 N.ar   83  TRP83      -0.2442
     19  CE2       99.0180   37.5160    6.4330 C.ar   83  TRP83       0.0810
     20  CE3       97.3240   35.9720    7.2280 C.ar   83  TRP83       0.0012
     21  CZ2       98.0570   38.3760    5.8930 C.ar   83  TRP83       0.0191
     22  CZ3       96.3620   36.8340    6.7010 C.ar   83  TRP83       0.0001
     23  CH2       96.7290   38.0140    6.0350 C.ar   83  TRP83       0.0015
     24  N         98.1830   33.0720   -0.3810 N.3    95  VAL95      -0.1245
     25  CA        96.7740   33.3300   -0.6500 C.3    95  VAL95       0.1561
     26  C         96.2460   32.0870   -1.3440 C.2    95  VAL95       0.2260
     27  O         96.6540   31.7970   -2.4700 O.2    95  VAL95      -0.2867
     28  CB        96.5630   34.5800   -1.4990 C.3    95  VAL95       0.0252
     29  CG1       95.0390   34.7520   -1.7830 C.3    95  VAL95       0.0019
     30  CG2       97.1130   35.7980   -0.7460 C.3    95  VAL95       0.0019
     31  N         92.7850   35.5990    6.5550 N.3   113  GLN113     -0.1245
     32  CA        91.9840   36.7780    6.1970 C.3   113  GLN113      0.1566
     33  C         91.2090   36.4020    4.9580 C.2   113  GLN113      0.2260
     34  O         91.7930   35.9330    3.9640 O.2   113  GLN113     -0.2867
     35  CB        92.8560   38.0360    5.9370 C.3   113  GLN113      0.0367
     36  CG        92.0500   39.3120    5.5830 C.3   113  GLN113      0.0905
     37  CD        92.8350   40.6180    5.6720 C.2   113  GLN113      0.2608
     38  OE1       93.7820   40.7360    6.4550 O.2   113  GLN113     -0.2717
     39  NE2       92.4250   41.6210    4.8850 N.am  113  GLN113     -0.0878
     40  N         89.4710   36.9710    1.5050 N.3   115  GLN115     -0.1245
     41  CA        89.6850   37.9330    0.4230 C.3   115  GLN115      0.1566
     42  C         88.4840   38.0680   -0.5210 C.2   115  GLN115      0.2260
     43  O         88.0440   39.1700   -0.7710 O.2   115  GLN115     -0.2867
     44  CB        90.9570   37.5790   -0.3810 C.3   115  GLN115      0.0367
     45  CG        91.1410   38.3090   -1.6930 C.3   115  GLN115      0.0905
     46  CD        92.4170   37.8880   -2.4410 C.2   115  GLN115      0.2608
     47  OE1       92.3640   37.1260   -3.4320 O.2   115  GLN115     -0.2717
     48  NE2       93.5610   38.3980   -1.9800 N.am  115  GLN115     -0.0878
     49  N        102.9850   39.1420    7.9410 N.3   182  ARG182     -0.1231
     50  CA       103.8810   39.9200    7.0800 C.3   182  ARG182      0.1694
     51  C        103.0810   40.6620    6.0150 C.2   182  ARG182      0.2592
     52  O        102.0390   40.1830    5.5720 O.2   182  ARG182     -0.2718
     53  CB       104.9650   39.0390    6.4420 C.3   182  ARG182      0.0321
     54  CG       104.4620   37.8070    5.6730 C.3   182  ARG182      0.0489
     55  CD       105.6020   36.8390    5.2400 C.3   182  ARG182      0.2205
     56  NE       106.7570   37.5930    4.7210 N.pl3 182  ARG182     -0.0865
     57  CZ       108.0070   37.4110    5.1110 C.cat 182  ARG182      0.5346
     58  NH1      108.3210   36.4570    5.9810 N.pl3 182  ARG182      0.1354
     59  NH2      108.9560   38.1900    4.6150 N.pl3 182  ARG182      0.1354
     60  N        103.6140   41.8110    5.5960 N.am  183  THR183     -0.1953
     61  CA       102.9190   42.7630    4.7290 C.3   183  THR183      0.1897
     62  C        103.6210   42.9370    3.3780 C.2   183  THR183      0.2313
     63  O        103.4370   43.9710    2.7320 O.2   183  THR183     -0.2863
     64  CB       102.9210   44.1480    5.4130 C.3   183  THR183      0.1794
     65  OG1      104.2610   44.4480    5.8110 O.3   183  THR183     -0.2208
     66  CG2      102.1740   44.1510    6.7540 C.3   183  THR183      0.0378
     67  N        103.4470   40.6790    0.8210 N.3   185  THR185     -0.1203
     68  CA       102.8820   39.7240   -0.1140 C.3   185  THR185      0.1994
     69  C        102.9540   40.2580   -1.5650 C.2   185  THR185      0.2618
     70  O        102.6500   41.4320   -1.7990 O.2   185  THR185     -0.2717
     71  CB       101.4300   39.4430    0.2570 C.3   185  THR185      0.1784
     72  OG1      101.3300   39.1350    1.6600 O.3   185  THR185     -0.2211
     73  CG2      100.9770   38.2160   -0.4570 C.3   185  THR185      0.0376
     74  N        103.3930   39.4130   -2.5010 N.am  186  VAL186     -0.1965
     75  CA       103.4010   39.7300   -3.9430 C.3   186  VAL186      0.1727
     76  C        103.0420   38.4320   -4.6820 C.2   186  VAL186      0.2616
     77  O        103.5500   37.3810   -4.3170 O.2   186  VAL186     -0.2715
     78  CB       104.8060   40.1740   -4.4580 C.3   186  VAL186      0.0290
     79  CG1      104.7250   40.6170   -5.9210 C.3   186  VAL186      0.0023
     80  CG2      105.4460   41.2870   -3.5800 C.3   186  VAL186      0.0023
     81  N        102.1630   38.4910   -5.6980 N.am  187  ASN187     -0.1958
     82  CA       101.6190   37.2920   -6.3690 C.3   187  ASN187      0.1819
     83  C        101.1070   36.1750   -5.4070 C.2   187  ASN187      0.2621
     84  O        101.2300   34.9760   -5.6890 O.2   187  ASN187     -0.2715
     85  CB       102.6240   36.7000   -7.3730 C.3   187  ASN187      0.1195
     86  CG       103.0120   37.6760   -8.4990 C.2   187  ASN187      0.2630
     87  OD1      102.2610   38.6110   -8.8380 O.2   187  ASN187     -0.2716
     88  ND2      104.2230   37.4700   -9.0620 N.am  187  ASN187     -0.0877
     89  N        100.5480   36.5830   -4.2720 N.am  188  GLY188     -0.1954
     90  CA        99.9050   35.6500   -3.3700 C.3   188  GLY188      0.1869
     91  C        100.8560   34.8430   -2.5040 C.2   188  GLY188      0.2309
     92  O        100.4590   33.8450   -1.8890 O.2   188  GLY188     -0.2863
@<TRIPOS>BOND
     1    88    86   am
     2    87    86    2
     3    86    85    1
     4    85    82    1
     5    82    81    1
     6    82    83    1
     7    79    78    1
     8    81    76   am
     9    84    83    2
    10    83    89   am
    11    76    77    2
    12    76    75    1
    13    78    75    1
    14    78    80    1
    15    89    90    1
    16    75    74    1
    17    47    46    2
    18    90    91    1
    19    91    92    2
    20    74    69   am
    21    27    26    2
    22    46    48   am
    23    46    45    1
    24    70    69    2
    25    29    28    1
    26    45    44    1
    27    69    68    1
    28    28    30    1
    29    28    25    1
    30    26    25    1
    31    43    42    2
    32    25    24    1
    33    42    41    1
    34    73    71    1
    35    44    41    1
    36    68    71    1
    37    68    67    1
    38    71    72    1
    39    41    40    1
    40     9     7   am
    41     1     2    1
    42     7     8    2
    43     7     6    1
    44    63    62    2
    45     2     5    1
    46     2     3    1
    47     5     6    1
    48    62    61    1
    49    34    33    2
    50     3     4    2
    51    59    57    1
    52    56    57    2
    53    56    55    1
    54    61    64    1
    55    61    60    1
    56    39    37   am
    57    33    32    1
    58    57    58    1
    59    55    54    1
    60    64    65    1
    61    64    66    1
    62    52    51    2
    63    36    37    1
    64    36    35    1
    65    60    51   am
    66    37    38    2
    67    54    53    1
    68    21    23   ar
    69    21    19   ar
    70    35    32    1
    71    51    50    1
    72    23    22   ar
    73    32    31    1
    74    19    18   ar
    75    19    17   ar
    76    53    50    1
    77    18    16   ar
    78    22    20   ar
    79    50    49    1
    80    17    20   ar
    81    17    15   ar
    82    10    11    1
    83    16    15   ar
    84    15    14    1
    85    11    14    1
    86    11    12    1
    87    12    13    2
