@<TRIPOS>MOLECULE
tmp/1h1lC00.pdb
 134 125 0 0 0
SMALL
GASTEIGER

@<TRIPOS>ATOM
      1  N         97.9210  -26.0010   29.6140 N.3    58  VAL58      -0.1245
      2  CA        97.0710  -25.3310   30.6060 C.3    58  VAL58       0.1561
      3  C         97.9090  -24.5440   31.6010 C.2    58  VAL58       0.2260
      4  O         97.4230  -23.6470   32.3000 O.2    58  VAL58      -0.2867
      5  CB        96.2640  -26.4700   31.2880 C.3    58  VAL58       0.0252
      6  CG1       95.3400  -25.9380   32.3730 C.3    58  VAL58       0.0019
      7  CG2       95.4920  -27.2300   30.2230 C.3    58  VAL58       0.0019
      8  N        100.3640  -22.0470   33.7710 N.3    60  GLY60      -0.1225
      9  CA       100.5750  -20.5940   33.9030 C.3    60  GLY60       0.1811
     10  C        102.0710  -20.3350   34.1760 C.2    60  GLY60       0.2280
     11  O        102.9230  -21.1690   33.8430 O.2    60  GLY60      -0.2866
     12  N        102.0890  -16.2470   38.4940 N.3    64  ALA64      -0.1245
     13  CA       100.8100  -16.7420   38.9770 C.3    64  ALA64       0.1562
     14  C        101.0210  -17.5270   40.2830 C.2    64  ALA64       0.2260
     15  O        100.2140  -17.6390   41.2150 O.2    64  ALA64      -0.2867
     16  CB       100.1550  -17.6560   37.9520 C.3    64  ALA64       0.0290
     17  N         99.6490  -14.9180   42.5610 N.3    68  GLY68      -0.1210
     18  CA        98.3420  -15.5130   42.4560 C.3    68  GLY68       0.1956
     19  C         98.0720  -16.5430   43.5350 C.2    68  GLY68       0.2611
     20  O         96.9760  -16.5890   44.0870 O.2    68  GLY68      -0.2717
     21  N         99.0320  -17.4380   43.7420 N.am   69  VAL69      -0.1979
     22  CA        98.7760  -18.5040   44.7140 C.3    69  VAL69       0.1595
     23  C         99.2240  -18.1990   46.1340 C.2    69  VAL69       0.2287
     24  O         98.4300  -18.3300   47.0410 O.2    69  VAL69      -0.2864
     25  CB        99.4420  -19.7700   44.1460 C.3    69  VAL69       0.0276
     26  CG1       99.4830  -20.8660   45.1940 C.3    69  VAL69       0.0022
     27  CG2       98.6040  -20.1330   42.9180 C.3    69  VAL69       0.0022
     28  N         90.1710  -13.6240   40.6020 N.3    94  GLY94      -0.1210
     29  CA        89.7830  -14.8210   39.8900 C.3    94  GLY94       0.1956
     30  C         89.7740  -16.0460   40.8120 C.2    94  GLY94       0.2611
     31  O         89.1590  -17.0780   40.5370 O.2    94  GLY94      -0.2717
     32  N         90.6950  -16.0110   41.7860 N.am   95  ARG95      -0.1979
     33  CA        90.8520  -17.1930   42.6550 C.3    95  ARG95       0.1597
     34  C         90.0940  -16.9210   43.9340 C.2    95  ARG95       0.2287
     35  O         90.2560  -15.8660   44.5560 O.2    95  ARG95      -0.2864
     36  CB        92.3340  -17.4560   42.8530 C.3    95  ARG95       0.0334
     37  CG        92.6070  -18.5220   43.9000 C.3    95  ARG95       0.0492
     38  CD        94.0010  -19.0010   43.6600 C.3    95  ARG95       0.2205
     39  NE        94.5860  -20.0440   44.4570 N.pl3  95  ARG95      -0.0865
     40  CZ        95.3110  -19.8860   45.5510 C.cat  95  ARG95       0.5346
     41  NH1       95.5140  -18.7510   46.1700 N.pl3  95  ARG95       0.1354
     42  NH2       95.9830  -21.0070   45.9500 N.pl3  95  ARG95       0.1354
     43  N        103.6950  -22.5880   37.1080 N.3   190  GLN190     -0.1245
     44  CA       103.4340  -21.9460   38.3930 C.3   190  GLN190      0.1566
     45  C        104.4440  -22.4200   39.4390 C.2   190  GLN190      0.2260
     46  O        104.6520  -21.7190   40.4280 O.2   190  GLN190     -0.2867
     47  CB       102.0330  -22.2970   38.9470 C.3   190  GLN190      0.0367
     48  CG       100.8840  -21.6970   38.1050 C.3   190  GLN190      0.0905
     49  CD       100.4760  -22.6530   37.0030 C.2   190  GLN190      0.2608
     50  OE1      101.2440  -23.1800   36.2100 O.2   190  GLN190     -0.2717
     51  NE2       99.1710  -22.9100   36.9530 N.am  190  GLN190     -0.0878
     52  N         90.0320  -21.8980   49.5510 N.3   229  ILE229     -0.1245
     53  CA        89.1840  -21.8060   48.3500 C.3   229  ILE229      0.1561
     54  C         87.7540  -22.1360   48.7370 C.2   229  ILE229      0.2260
     55  O         87.4430  -23.1850   49.2800 O.2   229  ILE229     -0.2867
     56  CB        89.6950  -22.7470   47.2240 C.3   229  ILE229      0.0252
     57  CG1       91.1650  -22.4550   46.9550 C.3   229  ILE229      0.0019
     58  CG2       88.7650  -22.6070   46.0250 C.3   229  ILE229      0.0019
     59  CD1       91.5850  -21.1070   46.4080 C.3   229  ILE229      0.0001
     60  N         99.1560  -30.5290   35.8660 N.3   378  GLU378     -0.1231
     61  CA        99.7300  -29.5510   34.9330 C.3   378  GLU378      0.1699
     62  C        101.2120  -29.3950   35.2330 C.2   378  GLU378      0.2592
     63  O        102.0310  -29.2460   34.3050 O.2   378  GLU378     -0.2718
     64  CB        99.0640  -28.1840   35.1880 C.3   378  GLU378      0.0402
     65  CG        97.6600  -27.8780   34.7210 C.3   378  GLU378      0.1161
     66  CD        97.2610  -26.4970   35.2720 C.2   378  GLU378      0.3649
     67  OE1       98.0500  -25.5180   35.1790 O.co2 378  GLU378     -0.2457
     68  OE2       96.1450  -26.3760   35.8230 O.co2 378  GLU378     -0.2457
     69  N        101.5210  -29.3360   36.5530 N.am  379  PHE379     -0.1976
     70  CA       102.8980  -28.9700   36.9160 C.3   379  PHE379      0.1639
     71  C        103.5340  -29.6650   38.1160 C.2   379  PHE379      0.2290
     72  O        104.5280  -29.1500   38.6580 O.2   379  PHE379     -0.2864
     73  CB       102.9610  -27.4670   37.1950 C.3   379  PHE379      0.0560
     74  CG       101.9780  -27.0030   38.2260 C.ar  379  PHE379     -0.0200
     75  CD1      102.1160  -27.1940   39.5860 C.ar  379  PHE379     -0.0042
     76  CD2      100.8700  -26.3300   37.7550 C.ar  379  PHE379     -0.0042
     77  CE1      101.1480  -26.7040   40.4790 C.ar  379  PHE379     -0.0003
     78  CE2       99.9130  -25.8380   38.6180 C.ar  379  PHE379     -0.0003
     79  CZ       100.0520  -26.0650   39.9550 C.ar  379  PHE379     -0.0000
     80  N         89.8040  -27.4580   35.1320 N.3   422  GLY422     -0.1210
     81  CA        89.7700  -26.0220   35.3430 C.3   422  GLY422      0.1956
     82  C         88.8220  -25.2690   34.4290 C.2   422  GLY422      0.2612
     83  O         88.3930  -25.7590   33.4090 O.2   422  GLY422     -0.2717
     84  N         88.8950  -23.9280   34.5320 N.am  423  ILE423     -0.1965
     85  CA        87.9600  -23.1210   33.7570 C.3   423  ILE423      0.1727
     86  C         88.3150  -23.1510   32.2780 C.2   423  ILE423      0.2616
     87  O         87.4280  -23.0790   31.4160 O.2   423  ILE423     -0.2715
     88  CB        88.0210  -21.6850   34.3320 C.3   423  ILE423      0.0290
     89  CG1       87.0940  -20.7190   33.6200 C.3   423  ILE423      0.0022
     90  CG2       89.4280  -21.1240   34.2900 C.3   423  ILE423      0.0023
     91  CD1       85.6400  -21.0120   33.7850 C.3   423  ILE423      0.0001
     92  N         89.6030  -23.2290   31.9550 N.am  424  LYS424     -0.1963
     93  CA        89.9950  -23.2610   30.5360 C.3   424  LYS424      0.1728
     94  C         89.5620  -24.5150   29.8190 C.2   424  LYS424      0.2616
     95  O         89.4280  -24.4920   28.6010 O.2   424  LYS424     -0.2715
     96  CB        91.5100  -23.1030   30.3840 C.3   424  LYS424      0.0311
     97  CG        92.0010  -21.7500   30.8600 C.3   424  LYS424      0.0038
     98  CD        93.4160  -21.4350   30.5080 C.3   424  LYS424      0.0206
     99  CE        94.5100  -22.3340   30.9930 C.3   424  LYS424      0.1093
    100  NZ        94.4140  -22.6950   32.4220 N.3   424  LYS424     -0.1314
    101  N         89.3020  -25.6070   30.5220 N.am  425  GLU425     -0.1977
    102  CA        88.7870  -26.8490   29.9570 C.3   425  GLU425      0.1602
    103  C         87.2620  -26.9830   29.9740 C.2   425  GLU425      0.2287
    104  O         86.6160  -27.7280   29.2140 O.2   425  GLU425     -0.2864
    105  CB        89.3450  -28.0040   30.8360 C.3   425  GLU425      0.0415
    106  CG        90.8590  -28.0710   31.0030 C.3   425  GLU425      0.1163
    107  CD        91.6200  -26.9460   31.6460 C.2   425  GLU425      0.3649
    108  OE1       91.6020  -26.5880   32.8500 O.co2 425  GLU425     -0.2457
    109  OE2       92.3560  -26.2410   30.8930 O.co2 425  GLU425     -0.2457
    110  N         84.2800  -27.8340   37.8940 N.3   438  GLN438     -0.1245
    111  CA        85.4540  -27.0090   38.0880 C.3   438  GLN438      0.1566
    112  C         86.0870  -27.3700   39.4280 C.2   438  GLN438      0.2260
    113  O         85.5150  -27.1420   40.4980 O.2   438  GLN438     -0.2867
    114  CB        85.0340  -25.5350   38.1150 C.3   438  GLN438      0.0367
    115  CG        85.0780  -24.8810   36.7320 C.3   438  GLN438      0.0905
    116  CD        85.0620  -23.3630   36.8850 C.2   438  GLN438      0.2608
    117  OE1       86.0880  -22.7860   37.2270 O.2   438  GLN438     -0.2717
    118  NE2       83.8900  -22.7490   36.7240 N.am  438  GLN438     -0.0878
    119  N         89.2130  -26.4590   40.5290 N.3   440  HIS440     -0.1226
    120  CA        90.0530  -25.4670   41.1320 C.3   440  HIS440      0.1752
    121  C         89.1240  -24.5180   41.9170 C.2   440  HIS440      0.2596
    122  O         89.4210  -24.3630   43.0770 O.2   440  HIS440     -0.2718
    123  CB        90.9020  -24.6020   40.2010 C.3   440  HIS440      0.0759
    124  CG        91.7490  -25.3090   39.1780 C.ar  440  HIS440      0.0818
    125  ND1       93.1260  -25.1050   39.0840 N.ar  440  HIS440     -0.2268
    126  CD2       91.4040  -26.2020   38.2390 C.ar  440  HIS440      0.1154
    127  CE1       93.5460  -25.8620   38.0460 C.ar  440  HIS440      0.1986
    128  NE2       92.5470  -26.5430   37.5390 N.ar  440  HIS440     -0.2212
    129  N         88.0770  -23.9830   41.2760 N.am  441  SER441     -0.1952
    130  CA        87.2920  -22.9460   41.9910 C.3   441  SER441      0.1924
    131  C         86.0590  -23.5130   42.6490 C.2   441  SER441      0.2314
    132  O         85.2000  -22.8080   43.1790 O.2   441  SER441     -0.2863
    133  CB        86.8000  -21.9850   40.8790 C.3   441  SER441      0.2116
    134  OG        85.9190  -22.7060   39.9820 O.3   441  SER441     -0.2180
@<TRIPOS>BOND
     1    95    94    2
     2   104   103    2
     3     1     2    1
     4    94   101   am
     5    94    93    1
     6   102   103    1
     7   102   101    1
     8   102   105    1
     9     7     5    1
    10    96    93    1
    11    96    97    1
    12    98    97    1
    13    98    99    1
    14    93    92    1
    15     2     5    1
    16     2     3    1
    17   105   106    1
    18   109   107   ar
    19    99   100    1
    20   106   107    1
    21     5     6    1
    22    87    86    2
    23     3     4    2
    24   107   108   ar
    25    92    86   am
    26    86    85    1
    27    83    82    2
    28    89    91    1
    29    89    88    1
    30    85    88    1
    31    85    84    1
    32     8     9    1
    33    11    10    2
    34     9    10    1
    35    90    88    1
    36    63    62    2
    37    82    84   am
    38    82    81    1
    39    65    64    1
    40    65    66    1
    41    61    64    1
    42    61    62    1
    43    61    60    1
    44    80    81    1
    45    67    66   ar
    46    62    69   am
    47    66    68   ar
    48    50    49    2
    49    69    70    1
    50   118   116   am
    51   115   116    1
    52   115   114    1
    53   116   117    2
    54    70    73    1
    55    70    71    1
    56    51    49   am
    57    49    48    1
    58    43    44    1
    59    73    74    1
    60   128   127   ar
    61   128   126   ar
    62    76    74   ar
    63    76    78   ar
    64   110   111    1
    65    16    13    1
    66   127   125   ar
    67   111   114    1
    68   111   112    1
    69    48    47    1
    70    71    72    2
    71    74    75   ar
    72   126   124   ar
    73    44    47    1
    74    44    45    1
    75    12    13    1
    76    78    79   ar
    77    13    14    1
    78   125   124   ar
    79   124   123    1
    80   112   113    2
    81    45    46    2
    82    75    77   ar
    83    29    28    1
    84    29    30    1
    85    79    77   ar
    86   134   133    1
    87   123   120    1
    88    14    15    2
    89   119   120    1
    90    31    30    2
    91    30    32   am
    92   133   130    1
    93   120   121    1
    94   129   121   am
    95   129   130    1
    96    32    33    1
    97   121   122    2
    98   130   131    1
    99    18    17    1
   100    18    19    1
   101   131   132    2
   102    33    36    1
   103    33    34    1
   104    36    37    1
   105    27    25    1
   106    19    21   am
   107    19    20    2
   108    38    37    1
   109    38    39    1
   110    21    22    1
   111    34    35    2
   112    25    22    1
   113    25    26    1
   114    39    40    2
   115    22    23    1
   116    40    42    1
   117    40    41    1
   118    58    56    1
   119    23    24    2
   120    59    57    1
   121    57    56    1
   122    56    53    1
   123    53    54    1
   124    53    52    1
   125    54    55    2
