@<TRIPOS>MOLECULE
tmp/1h1mC00.pdb
 125 120 0 0 0
SMALL
GASTEIGER

@<TRIPOS>ATOM
      1  N         63.3730   -2.3110   40.4890 N.3    57  ASP57      -0.1225
      2  CA        63.6560   -3.7110   40.7030 C.3    57  ASP57       0.1805
      3  C         64.6530   -4.2350   39.6410 C.2    57  ASP57       0.2598
      4  O         64.9760   -5.4390   39.6200 O.2    57  ASP57      -0.2718
      5  CB        62.3710   -4.5510   40.5850 C.3    57  ASP57       0.1424
      6  CG        61.3780   -4.2980   41.7070 C.2    57  ASP57       0.3668
      7  OD1       61.7840   -3.9420   42.8440 O.co2  57  ASP57      -0.2456
      8  OD2       60.1510   -4.4950   41.5310 O.co2  57  ASP57      -0.2456
      9  N         65.0610   -3.3740   38.7180 N.am   58  ALA58      -0.1966
     10  CA        65.9620   -3.7990   37.6390 C.3    58  ALA58       0.1728
     11  C         67.2650   -3.0100   37.7430 C.2    58  ALA58       0.2616
     12  O         67.2830   -1.9670   38.3510 O.2    58  ALA58      -0.2715
     13  CB        65.3260   -3.5530   36.2620 C.3    58  ALA58       0.0334
     14  N         68.3480   -3.5100   37.1360 N.am   59  LEU59      -0.1977
     15  CA        69.6270   -2.7780   37.0880 C.3    59  LEU59       0.1596
     16  C         69.4080   -1.4110   36.4950 C.2    59  LEU59       0.2287
     17  O         68.4600   -1.1980   35.7010 O.2    59  LEU59      -0.2864
     18  CB        70.6700   -3.5320   36.2370 C.3    59  LEU59       0.0297
     19  CG        71.1860   -4.7870   36.9660 C.3    59  LEU59       0.0022
     20  CD1       72.0550   -5.5800   36.0290 C.3    59  LEU59       0.0001
     21  CD2       71.9940   -4.4390   38.2150 C.3    59  LEU59       0.0001
     22  N         72.7840    0.1660   45.0600 N.3    81  GLN81      -0.1245
     23  CA        73.7650   -0.8940   45.0950 C.3    81  GLN81       0.1566
     24  C         74.7300   -0.6340   43.9450 C.2    81  GLN81       0.2260
     25  O         74.3240   -0.1680   42.8700 O.2    81  GLN81      -0.2867
     26  CB        73.1020   -2.2490   44.9300 C.3    81  GLN81       0.0367
     27  CG        74.1060   -3.3830   45.2870 C.3    81  GLN81       0.0905
     28  CD        73.4890   -4.6480   45.8430 C.2    81  GLN81       0.2608
     29  OE1       74.2110   -5.6680   46.0710 O.2    81  GLN81      -0.2717
     30  NE2       72.2070   -4.6280   46.0790 N.am   81  GLN81      -0.0878
     31  N         77.9590   -2.6740   41.9830 N.3    83  TRP83      -0.1241
     32  CA        78.7900   -3.8540   41.7960 C.3    83  TRP83       0.1605
     33  C         80.0400   -3.4550   41.0270 C.2    83  TRP83       0.2264
     34  O         79.9600   -2.6010   40.1150 O.2    83  TRP83      -0.2867
     35  CB        78.0460   -4.9240   40.9650 C.3    83  TRP83       0.0550
     36  CG        76.8420   -5.5610   41.6490 C.ar   83  TRP83       0.0003
     37  CD1       76.8040   -6.8030   42.2760 C.ar   83  TRP83       0.0946
     38  CD2       75.5080   -5.0480   41.7160 C.ar   83  TRP83       0.0152
     39  NE1       75.5360   -7.0500   42.7530 N.ar   83  TRP83      -0.2442
     40  CE2       74.7270   -5.9870   42.4200 C.ar   83  TRP83       0.0810
     41  CE3       74.8840   -3.8690   41.2420 C.ar   83  TRP83       0.0012
     42  CZ2       73.3760   -5.8150   42.6470 C.ar   83  TRP83       0.0191
     43  CZ3       73.5550   -3.6940   41.4750 C.ar   83  TRP83       0.0001
     44  CH2       72.8000   -4.6420   42.1730 C.ar   83  TRP83       0.0015
     45  N         75.8470   -1.6310   49.1520 N.3    95  VAL95      -0.1245
     46  CA        74.7270   -0.7100   49.0230 C.3    95  VAL95       0.1561
     47  C         75.1800    0.5930   49.6530 C.2    95  VAL95       0.2260
     48  O         75.4660    0.6160   50.8740 O.2    95  VAL95      -0.2867
     49  CB        73.5060   -1.2820   49.7050 C.3    95  VAL95       0.0252
     50  CG1       72.3090   -0.2810   49.6680 C.3    95  VAL95       0.0019
     51  CG2       73.1350   -2.6070   49.0200 C.3    95  VAL95       0.0019
     52  N         72.0700   -0.2680   40.9160 N.3   113  GLN113     -0.1245
     53  CA        70.6390   -0.4690   40.9720 C.3   113  GLN113      0.1566
     54  C         70.1360    0.4850   42.0210 C.2   113  GLN113      0.2260
     55  O         70.6230    0.5080   43.1830 O.2   113  GLN113     -0.2867
     56  CB        70.2730   -1.8960   41.3580 C.3   113  GLN113      0.0367
     57  CG        68.7660   -2.0850   41.4890 C.3   113  GLN113      0.0905
     58  CD        68.3830   -3.5410   41.5030 C.2   113  GLN113      0.2608
     59  OE1       69.1020   -4.3540   40.9330 O.2   113  GLN113     -0.2717
     60  NE2       67.2130   -3.8720   42.0710 N.am  113  GLN113     -0.0878
     61  N         65.9690   -3.7280   32.4890 N.3   154  THR154     -0.1218
     62  CA        67.1680   -2.9520   32.8380 C.3   154  THR154      0.1862
     63  C         67.0590   -1.5430   32.2260 C.2   154  THR154      0.2287
     64  O         66.7550   -1.3950   31.0450 O.2   154  THR154     -0.2866
     65  CB        68.4830   -3.6420   32.3320 C.3   154  THR154      0.1770
     66  OG1       68.7400   -4.8580   33.0680 O.3   154  THR154     -0.2211
     67  CG2       69.7090   -2.7270   32.6140 C.3   154  THR154      0.0375
     68  N         77.7080  -11.2790   35.7240 N.3   177  THR177     -0.1204
     69  CA        76.5180  -11.4890   36.5220 C.3   177  THR177      0.1979
     70  C         76.6850  -10.8140   37.8900 C.2   177  THR177      0.2460
     71  O         77.5370  -11.2200   38.6710 O.2   177  THR177     -0.2732
     72  CB        76.1900  -12.9900   36.6540 C.3   177  THR177      0.1783
     73  OG1       75.9770  -13.5370   35.3440 O.3   177  THR177     -0.2211
     74  CG2       74.8320  -13.1540   37.3360 C.3   177  THR177      0.0376
     75  N         75.9270   -9.7590   38.1720 N.am  178  PRO178     -0.2717
     76  CA        76.0340   -9.1230   39.5080 C.3   178  PRO178      0.1535
     77  C         75.6930  -10.1290   40.5810 C.2   178  PRO178      0.2598
     78  O         74.7300  -10.9110   40.4500 O.2   178  PRO178     -0.2715
     79  CB        75.0420   -7.9360   39.4520 C.3   178  PRO178      0.0310
     80  CG        74.8710   -7.6900   37.9960 C.3   178  PRO178      0.0237
     81  CD        74.9820   -9.0420   37.2890 C.3   178  PRO178      0.0939
     82  N         76.5240  -10.1860   41.6180 N.am  179  ARG179     -0.1964
     83  CA        76.3420  -11.2690   42.5830 C.3   179  ARG179      0.1729
     84  C         75.0800  -11.0100   43.4060 C.2   179  ARG179      0.2616
     85  O         74.5930   -9.8760   43.4980 O.2   179  ARG179     -0.2715
     86  CB        77.5910  -11.4760   43.4260 C.3   179  ARG179      0.0348
     87  CG        77.9830  -10.2300   44.2430 C.3   179  ARG179      0.0492
     88  CD        79.3300  -10.3820   44.9960 C.3   179  ARG179      0.2205
     89  NE        79.3390  -11.6180   45.7660 N.pl3 179  ARG179     -0.0865
     90  CZ        80.3910  -12.4220   45.9060 C.cat 179  ARG179      0.5346
     91  NH1       81.5830  -12.0930   45.3780 N.pl3 179  ARG179      0.1354
     92  NH2       80.2450  -13.5740   46.5720 N.pl3 179  ARG179      0.1354
     93  N         74.5100  -12.0810   43.9410 N.am  180  THR180     -0.1951
     94  CA        73.1760  -11.9790   44.5160 C.3   180  THR180      0.1897
     95  C         73.1010  -12.5490   45.9280 C.2   180  THR180      0.2313
     96  O         72.0550  -13.0100   46.3630 O.2   180  THR180     -0.2863
     97  CB        72.1680  -12.6770   43.6060 C.3   180  THR180      0.1794
     98  OG1       72.7170  -13.9190   43.1390 O.3   180  THR180     -0.2208
     99  CG2       72.0170  -11.8420   42.3310 C.3   180  THR180      0.0378
    100  N         74.0210  -10.6460   48.6300 N.3   182  THR182     -0.1203
    101  CA        74.2030   -9.4730   49.4800 C.3   182  THR182      0.1994
    102  C         73.5790   -9.6960   50.8640 C.2   182  THR182      0.2618
    103  O         72.4940  -10.2650   50.9730 O.2   182  THR182     -0.2717
    104  CB        73.5740   -8.2220   48.8080 C.3   182  THR182      0.1784
    105  OG1       74.0060   -8.1390   47.4300 O.3   182  THR182     -0.2211
    106  CG2       74.0720   -6.9190   49.4590 C.3   182  THR182      0.0376
    107  N         74.2960   -9.2880   51.9140 N.am  183  VAL183     -0.1965
    108  CA        73.8220   -9.3620   53.2920 C.3   183  VAL183      0.1727
    109  C         74.2820   -8.1070   53.9810 C.2   183  VAL183      0.2616
    110  O         75.4300   -7.7400   53.8750 O.2   183  VAL183     -0.2715
    111  CB        74.4270  -10.5770   54.0550 C.3   183  VAL183      0.0290
    112  CG1       73.7780  -10.6830   55.4530 C.3   183  VAL183      0.0023
    113  CG2       74.1820  -11.8260   53.2860 C.3   183  VAL183      0.0023
    114  N         73.3800   -7.4230   54.6820 N.am  184  ASN184     -0.1958
    115  CA        73.7600   -6.1710   55.3360 C.3   184  ASN184      0.1819
    116  C         74.5060   -5.2620   54.3880 C.2   184  ASN184      0.2621
    117  O         75.4440   -4.5350   54.7940 O.2   184  ASN184     -0.2715
    118  CB        74.6050   -6.4340   56.6030 C.3   184  ASN184      0.1195
    119  CG        73.8450   -7.1910   57.6210 C.2   184  ASN184      0.2630
    120  OD1       72.5920   -7.0570   57.6990 O.2   184  ASN184     -0.2716
    121  ND2       74.5690   -8.0290   58.4090 N.am  184  ASN184     -0.0877
    122  N         74.0460   -5.2420   53.1310 N.am  185  GLY185     -0.1954
    123  CA        74.4960   -4.2430   52.1870 C.3   185  GLY185      0.1869
    124  C         75.8740   -4.5200   51.6110 C.2   185  GLY185      0.2309
    125  O         76.4610   -3.6530   50.9720 O.2   185  GLY185     -0.2863
@<TRIPOS>BOND
     1    64    63    2
     2    63    62    1
     3    65    67    1
     4    65    62    1
     5    65    66    1
     6    61    62    1
     7    73    72    1
     8    17    16    2
     9    68    69    1
    10    20    19    1
    11    18    19    1
    12    18    15    1
    13    13    10    1
    14    16    15    1
    15    69    72    1
    16    69    70    1
    17    72    74    1
    18    19    21    1
    19    15    14    1
    20    14    11   am
    21    81    80    1
    22    81    75    1
    23    10    11    1
    24    10     9    1
    25    11    12    2
    26    70    75   am
    27    70    71    2
    28    80    79    1
    29    75    76    1
    30     9     3   am
    31    79    76    1
    32    76    77    1
    33     4     3    2
    34     3     2    1
    35    34    33    2
    36    78    77    2
    37     1     2    1
    38    77    82   am
    39     5     2    1
    40     5     6    1
    41    52    53    1
    42    59    58    2
    43    35    36    1
    44    35    32    1
    45    53    56    1
    46    53    54    1
    47    33    32    1
    48    41    43   ar
    49    41    38   ar
    50    56    57    1
    51    43    44   ar
    52    57    58    1
    53    58    60   am
    54     8     6   ar
    55    82    83    1
    56    36    38   ar
    57    36    37   ar
    58     6     7   ar
    59    38    40   ar
    60    32    31    1
    61    54    55    2
    62    44    42   ar
    63    37    39   ar
    64    99    97    1
    65    40    42   ar
    66    40    39   ar
    67    83    84    1
    68    83    86    1
    69    25    24    2
    70    98    97    1
    71    84    85    2
    72    84    93   am
    73    86    87    1
    74    97    94    1
    75    93    94    1
    76    24    23    1
    77    87    88    1
    78    94    95    1
    79    26    23    1
    80    26    27    1
    81    88    89    1
    82    22    23    1
    83    27    28    1
    84    91    90    1
    85    89    90    2
    86    28    29    2
    87    28    30   am
    88    90    92    1
    89    95    96    2
    90   105   104    1
    91   100   101    1
    92   104   106    1
    93   104   101    1
    94    51    49    1
    95    46    45    1
    96    46    47    1
    97    46    49    1
    98   101   102    1
    99    47    48    2
   100    50    49    1
   101   102   103    2
   102   102   107   am
   103   125   124    2
   104   124   123    1
   105   107   108    1
   106   123   122    1
   107   122   116   am
   108   113   111    1
   109   108   109    1
   110   108   111    1
   111   110   109    2
   112   109   114   am
   113   111   112    1
   114   116   117    2
   115   116   115    1
   116   114   115    1
   117   115   118    1
   118   118   119    1
   119   119   120    2
   120   119   121   am
