@<TRIPOS>MOLECULE
tmp/1h1tB00.pdb
 160 154 0 0 0
SMALL
GASTEIGER

@<TRIPOS>ATOM
      1  N         11.4190   23.7610   40.8680 N.3     6  PRO6       -0.2102
      2  CA        11.0860   23.2040   39.5570 C.3     6  PRO6        0.1504
      3  C         12.2660   22.6470   38.7720 C.2     6  PRO6        0.2576
      4  O         13.4080   23.0460   38.9750 O.2     6  PRO6       -0.2718
      5  CB        10.4560   24.3910   38.8510 C.3     6  PRO6        0.0282
      6  CG        11.3840   25.4920   39.2680 C.3     6  PRO6        0.0208
      7  CD        11.5870   25.2270   40.7700 C.3     6  PRO6        0.0893
      8  N         11.9710   21.7300   37.8890 N.am    7  GLY7       -0.1943
      9  CA        13.0460   21.1750   37.1020 C.3     7  GLY7        0.2014
     10  C         12.5660   20.0170   36.2780 C.2     7  GLY7        0.2640
     11  O         11.4320   19.5550   36.4160 O.2     7  GLY7       -0.2714
     12  N         13.4430   19.5490   35.4310 N.am    8  THR8       -0.1936
     13  CA        13.0910   18.4440   34.6170 C.3     8  THR8        0.2028
     14  C         13.2740   17.1610   35.4020 C.2     8  THR8        0.2642
     15  O         12.5250   16.2040   35.1940 O.2     8  THR8       -0.2714
     16  CB        13.9100   18.4440   33.3390 C.3     8  THR8        0.1808
     17  OG1       13.7480   19.7170   32.6760 O.3     8  THR8       -0.2208
     18  CG2       13.4620   17.3200   32.4140 C.3     8  THR8        0.0379
     19  N         14.2640   17.1350   36.2950 N.am    9  PHE9       -0.1973
     20  CA        14.5670   15.9510   37.0990 C.3     9  PHE9        0.1639
     21  C         14.4690   14.6740   36.2670 C.2     9  PHE9        0.2290
     22  O         13.6790   13.7780   36.5690 O.2     9  PHE9       -0.2864
     23  CB        13.6150   15.8680   38.2980 C.3     9  PHE9        0.0560
     24  CG        13.6050   17.1060   39.1560 C.ar    9  PHE9       -0.0200
     25  CD1       12.6170   18.0760   39.0000 C.ar    9  PHE9       -0.0042
     26  CD2       14.5900   17.3040   40.1120 C.ar    9  PHE9       -0.0042
     27  CE1       12.6150   19.2220   39.7940 C.ar    9  PHE9       -0.0003
     28  CE2       14.5950   18.4400   40.9050 C.ar    9  PHE9       -0.0003
     29  CZ        13.6080   19.4020   40.7470 C.ar    9  PHE9       -0.0000
     30  N         20.0540   16.7900   43.2130 N.3    16  HIS16      -0.1241
     31  CA        18.7310   17.3710   43.4200 C.3    16  HIS16       0.1621
     32  C         18.2860   17.1160   44.8570 C.2    16  HIS16       0.2264
     33  O         17.6860   17.9870   45.4880 O.2    16  HIS16      -0.2867
     34  CB        17.7130   16.7520   42.4590 C.3    16  HIS16       0.0745
     35  CG        18.0080   17.0010   41.0150 C.ar   16  HIS16       0.0817
     36  ND1       18.1970   15.9800   40.1100 N.ar   16  HIS16      -0.2268
     37  CD2       18.1420   18.1530   40.3160 C.ar   16  HIS16       0.1154
     38  CE1       18.4380   16.4910   38.9160 C.ar   16  HIS16       0.1986
     39  NE2       18.4110   17.8080   39.0140 N.ar   16  HIS16      -0.2212
     40  N          8.5230   19.4760   35.4970 N.3    35  ALA35      -0.1245
     41  CA         7.9640   19.9570   34.2390 C.3    35  ALA35       0.1562
     42  C          7.9050   18.8350   33.2110 C.2    35  ALA35       0.2260
     43  O          8.8250   18.0280   33.1130 O.2    35  ALA35      -0.2867
     44  CB         8.8120   21.1130   33.6960 C.3    35  ALA35       0.0290
     45  N          8.2040   19.0260   30.0340 N.3    37  SER37      -0.1217
     46  CA         9.3290   19.2560   29.1280 C.3    37  SER37       0.1889
     47  C          9.3670   18.3440   27.9050 C.2    37  SER37       0.2288
     48  O         10.4140   17.7820   27.5750 O.2    37  SER37      -0.2866
     49  CB        10.6520   19.1130   29.8860 C.3    37  SER37       0.2089
     50  OG        10.7290   20.0410   30.9500 O.3    37  SER37      -0.2183
     51  N         12.2340   18.3100   25.3580 N.3    40  LYS40      -0.1245
     52  CA        13.5460   17.7870   25.7320 C.3    40  LYS40       0.1561
     53  C         13.6030   16.2750   25.5600 C.2    40  LYS40       0.2260
     54  O         14.6270   15.6520   25.8440 O.2    40  LYS40      -0.2867
     55  CB        13.8750   18.1410   27.1880 C.3    40  LYS40       0.0271
     56  CG        14.0770   19.6250   27.4500 C.3    40  LYS40       0.0035
     57  CD        14.5250   19.8680   28.8880 C.3    40  LYS40       0.0206
     58  CE        14.8020   21.3400   29.1440 C.3    40  LYS40       0.1093
     59  NZ        15.2900   21.5760   30.5280 N.3    40  LYS40      -0.1314
     60  N          3.8000   19.1540   36.2550 N.3    68  PHE68      -0.1227
     61  CA         3.0710   20.2470   35.6060 C.3    68  PHE68       0.1736
     62  C          3.5090   20.4380   34.1610 C.2    68  PHE68       0.2596
     63  O          4.6500   20.1430   33.8060 O.2    68  PHE68      -0.2718
     64  CB         3.2420   21.5690   36.3730 C.3    68  PHE68       0.0547
     65  CG         4.6180   22.1790   36.2620 C.ar   68  PHE68      -0.0202
     66  CD1        5.6770   21.6850   37.0130 C.ar   68  PHE68      -0.0042
     67  CD2        4.8470   23.2570   35.4080 C.ar   68  PHE68      -0.0042
     68  CE1        6.9480   22.2560   36.9180 C.ar   68  PHE68      -0.0003
     69  CE2        6.1150   23.8350   35.3050 C.ar   68  PHE68      -0.0003
     70  CZ         7.1640   23.3320   36.0620 C.ar   68  PHE68      -0.0000
     71  N          2.5970   20.9320   33.3280 N.am   69  SER69      -0.1938
     72  CA         2.9010   21.1620   31.9220 C.3    69  SER69       0.2055
     73  C          2.6450   22.6060   31.5160 C.2    69  SER69       0.2643
     74  O          2.8630   22.9730   30.3630 O.2    69  SER69      -0.2714
     75  CB         2.0700   20.2320   31.0280 C.3    69  SER69       0.2130
     76  OG         0.6850   20.5010   31.1590 O.3    69  SER69      -0.2179
     77  N          2.1750   23.4290   32.4450 N.am   70  ASP70      -0.1957
     78  CA         1.9200   24.8250   32.1060 C.3    70  ASP70       0.1840
     79  C          3.1220   25.7130   32.3770 C.2    70  ASP70       0.2622
     80  O          4.2260   25.2250   32.6150 O.2    70  ASP70      -0.2715
     81  CB         0.7000   25.3740   32.8560 C.3    70  ASP70       0.1450
     82  CG         0.5930   24.8650   34.2760 C.2    70  ASP70       0.3671
     83  OD1        1.6400   24.6530   34.9250 O.co2  70  ASP70      -0.2456
     84  OD2       -0.5540   24.6910   34.7500 O.co2  70  ASP70      -0.2456
     85  N          2.8980   27.0200   32.3100 N.am   71  LEU71      -0.1963
     86  CA         3.9400   28.0050   32.5660 C.3    71  LEU71       0.1728
     87  C          4.3350   27.8280   34.0300 C.2    71  LEU71       0.2616
     88  O          3.4750   27.8240   34.9110 O.2    71  LEU71      -0.2715
     89  CB         3.3820   29.4100   32.3350 C.3    71  LEU71       0.0311
     90  CG         4.3440   30.5980   32.4010 C.3    71  LEU71       0.0022
     91  CD1        5.2660   30.5740   31.1860 C.3    71  LEU71       0.0001
     92  CD2        3.5470   31.8920   32.4220 C.3    71  LEU71       0.0001
     93  N          5.6280   27.6700   34.2940 N.am   72  MET72      -0.1963
     94  CA         6.0820   27.4640   35.6650 C.3    72  MET72       0.1736
     95  C          5.5720   28.5550   36.6140 C.2    72  MET72       0.2616
     96  O          5.0960   28.2570   37.7120 O.2    72  MET72      -0.2715
     97  CB         7.6180   27.3740   35.6940 C.3    72  MET72       0.0427
     98  CG         8.2170   26.8620   37.0070 C.3    72  MET72       0.0599
     99  SD         8.2230   28.1280   38.2670 S.3    72  MET72      -0.1393
    100  CE         9.4540   29.2330   37.5780 C.3    72  MET72       0.0692
    101  N          5.6420   29.8110   36.1890 N.am   73  ALA73      -0.1977
    102  CA         5.1960   30.9140   37.0310 C.3    73  ALA73       0.1597
    103  C          3.7130   30.8140   37.4030 C.2    73  ALA73       0.2287
    104  O          3.3430   31.1130   38.5390 O.2    73  ALA73      -0.2864
    105  CB         5.4830   32.2440   36.3520 C.3    73  ALA73       0.0319
    106  N         16.4840   27.3430   43.1070 N.3    86  ARG86      -0.1245
    107  CA        17.3250   26.9310   41.9920 C.3    86  ARG86       0.1563
    108  C         18.6780   26.5310   42.5790 C.2    86  ARG86       0.2260
    109  O         19.1490   27.1390   43.5400 O.2    86  ARG86      -0.2867
    110  CB        17.5190   28.0650   40.9800 C.3    86  ARG86       0.0307
    111  CG        16.2460   28.4550   40.2280 C.3    86  ARG86       0.0489
    112  CD        15.7360   27.3180   39.3460 C.3    86  ARG86       0.2205
    113  NE        16.5870   27.1130   38.1760 N.pl3  86  ARG86      -0.0865
    114  CZ        16.4360   26.1330   37.2880 C.cat  86  ARG86       0.5346
    115  NH1       15.4630   25.2450   37.4260 N.pl3  86  ARG86       0.1354
    116  NH2       17.2590   26.0490   36.2490 N.pl3  86  ARG86       0.1354
    117  N         22.6020   31.6620   32.6110 N.3    96  TYR96      -0.1241
    118  CA        21.3050   31.1460   32.1910 C.3    96  TYR96       0.1605
    119  C         20.2720   31.2940   33.3040 C.2    96  TYR96       0.2264
    120  O         19.1070   31.5920   33.0460 O.2    96  TYR96      -0.2867
    121  CB        21.4480   29.6730   31.7790 C.3    96  TYR96       0.0534
    122  CG        20.1490   28.9070   31.6910 C.ar   96  TYR96      -0.0201
    123  CD1       19.6760   28.1760   32.7800 C.ar   96  TYR96      -0.0009
    124  CD2       19.3870   28.9180   30.5250 C.ar   96  TYR96      -0.0009
    125  CE1       18.4770   27.4740   32.7100 C.ar   96  TYR96       0.0417
    126  CE2       18.1840   28.2180   30.4440 C.ar   96  TYR96       0.0417
    127  CZ        17.7360   27.5000   31.5410 C.ar   96  TYR96       0.1957
    128  OH        16.5430   26.8180   31.4750 O.3    96  TYR96      -0.2866
    129  N         16.4430   33.1640   33.3030 N.3   100  LEU100     -0.1245
    130  CA        15.2360   32.5000   33.7750 C.3   100  LEU100      0.1561
    131  C         14.6400   33.2570   34.9490 C.2   100  LEU100      0.2260
    132  O         13.4380   33.5040   34.9890 O.2   100  LEU100     -0.2867
    133  CB        15.5480   31.0700   34.2170 C.3   100  LEU100      0.0270
    134  CG        14.9510   29.9360   33.3850 C.3   100  LEU100      0.0019
    135  CD1       15.4740   30.0150   31.9530 C.3   100  LEU100      0.0001
    136  CD2       15.3220   28.6010   34.0230 C.3   100  LEU100      0.0001
    137  N         12.9270   36.4300   33.9050 N.3   103  MET103     -0.1230
    138  CA        11.7040   36.2130   33.1410 C.3   103  MET103      0.1702
    139  C         10.6030   35.8390   34.1290 C.2   103  MET103      0.2592
    140  O          9.5030   36.3860   34.0830 O.2   103  MET103     -0.2718
    141  CB        11.8940   35.1060   32.1030 C.3   103  MET103      0.0401
    142  CG        10.6190   34.7500   31.3310 C.3   103  MET103      0.0596
    143  SD         9.8700   36.1530   30.4750 S.3   103  MET103     -0.1393
    144  CE        10.8260   36.1520   28.9710 C.3   103  MET103      0.0692
    145  N         10.9100   34.9180   35.0370 N.am  104  ASN104     -0.1974
    146  CA         9.9340   34.5030   36.0320 C.3   104  ASN104      0.1688
    147  C          9.5180   35.6720   36.9120 C.2   104  ASN104      0.2292
    148  O          8.3630   35.7600   37.3330 O.2   104  ASN104     -0.2864
    149  CB        10.4930   33.3640   36.8880 C.3   104  ASN104      0.1181
    150  CG        10.5110   32.0510   36.1430 C.2   104  ASN104      0.2629
    151  OD1        9.5270   31.6890   35.4940 O.2   104  ASN104     -0.2716
    152  ND2       11.6190   31.3230   36.2320 N.am  104  ASN104     -0.0877
    153  N          7.0040   37.6270   35.0580 N.3   107  LEU107     -0.1245
    154  CA         5.7330   36.8990   35.0280 C.3   107  LEU107      0.1561
    155  C          5.0360   36.8820   36.3900 C.2   107  LEU107      0.2260
    156  O          3.8050   36.9010   36.4720 O.2   107  LEU107     -0.2867
    157  CB         5.9740   35.4570   34.5610 C.3   107  LEU107      0.0270
    158  CG         6.5220   35.2990   33.1360 C.3   107  LEU107      0.0019
    159  CD1        7.1430   33.9220   32.9490 C.3   107  LEU107      0.0001
    160  CD2        5.3970   35.5240   32.1410 C.3   107  LEU107      0.0001
@<TRIPOS>BOND
     1    51    52    1
     2    53    52    1
     3    53    54    2
     4    52    55    1
     5    55    56    1
     6    56    57    1
     7    48    47    2
     8    47    46    1
     9    57    58    1
    10   144   143    1
    11    46    49    1
    12    46    45    1
    13    58    59    1
    14    49    50    1
    15    74    73    2
    16   126   124   ar
    17   126   127   ar
    18   143   142    1
    19   124   122   ar
    20    75    76    1
    21    75    72    1
    22    91    90    1
    23   142   141    1
    24   128   127    1
    25    73    72    1
    26    73    77   am
    27   127   125   ar
    28   122   121    1
    29   122   123   ar
    30   121   118    1
    31    72    71    1
    32   135   134    1
    33   141   138    1
    34    78    79    1
    35    78    77    1
    36    78    81    1
    37   160   158    1
    38   118   117    1
    39   118   119    1
    40    85    79   am
    41    85    86    1
    42    89    90    1
    43    89    86    1
    44    79    80    2
    45    90    92    1
    46    18    16    1
    47    86    87    1
    48    17    16    1
    49   125   123   ar
    50    81    82    1
    51   159   158    1
    52   120   119    2
    53    43    42    2
    54   158   157    1
    55   138   137    1
    56   138   139    1
    57    42    41    1
    58   129   130    1
    59    71    62   am
    60    16    13    1
    61   134   136    1
    62   134   133    1
    63    44    41    1
    64   130   133    1
    65   130   131    1
    66    63    62    2
    67    87    93   am
    68    87    88    2
    69   140   139    2
    70   139   145   am
    71    62    61    1
    72    41    40    1
    73    82    84   ar
    74    82    83   ar
    75    93    94    1
    76   157   154    1
    77    13    14    1
    78    13    12    1
    79   131   132    2
    80   154   153    1
    81   154   155    1
    82   145   146    1
    83    15    14    2
    84    69    67   ar
    85    69    70   ar
    86    14    19   am
    87    67    65   ar
    88    12    10   am
    89   151   150    2
    90    61    60    1
    91    61    64    1
    92    94    97    1
    93    94    95    1
    94    97    98    1
    95   146   149    1
    96   146   147    1
    97    70    68   ar
    98   150   152   am
    99   150   149    1
   100   101    95   am
   101   101   102    1
   102   116   114    1
   103    65    64    1
   104    65    66   ar
   105    21    22    2
   106    21    20    1
   107    10    11    2
   108    10     9    1
   109    19    20    1
   110   105   102    1
   111   155   156    2
   112    95    96    2
   113   147   148    2
   114    68    66   ar
   115    98    99    1
   116   102   103    1
   117    20    23    1
   118     9     8    1
   119   114   115    1
   120   114   113    2
   121   103   104    2
   122   100    99    1
   123     8     3   am
   124   113   112    1
   125    23    24    1
   126     3     4    2
   127     3     2    1
   128     5     6    1
   129     5     2    1
   130    38    39   ar
   131    38    36   ar
   132    25    24   ar
   133    25    27   ar
   134    39    37   ar
   135    24    26   ar
   136     6     7    1
   137   112   111    1
   138     2     1    1
   139    27    29   ar
   140    36    35   ar
   141    26    28   ar
   142   111   110    1
   143    37    35   ar
   144    29    28   ar
   145     7     1    1
   146   110   107    1
   147    35    34    1
   148   107   108    1
   149   107   106    1
   150    34    31    1
   151   108   109    2
   152    30    31    1
   153    31    32    1
   154    32    33    2
