@<TRIPOS>MOLECULE
tmp/1h1tA00.pdb
 190 183 0 0 0
SMALL
GASTEIGER

@<TRIPOS>ATOM
      1  N         25.6980   40.0230   55.6370 N.3     7  PRO7       -0.2102
      2  CA        26.9610   40.7070   55.9200 C.3     7  PRO7        0.1504
      3  C         27.6680   41.3800   54.7520 C.2     7  PRO7        0.2576
      4  O         27.5010   40.9990   53.5930 O.2     7  PRO7       -0.2718
      5  CB        27.8030   39.6010   56.5370 C.3     7  PRO7        0.0282
      6  CG        27.4040   38.4060   55.6870 C.3     7  PRO7        0.0208
      7  CD        25.8950   38.5600   55.5480 C.3     7  PRO7        0.0893
      8  N         28.4610   42.3920   55.0840 N.am    8  GLY8       -0.1943
      9  CA        29.2130   43.1150   54.0760 C.3     8  GLY8        0.2014
     10  C         29.9020   44.3170   54.6920 C.2     8  GLY8        0.2639
     11  O         29.8020   44.5530   55.8980 O.2     8  GLY8       -0.2714
     12  N         30.5500   45.0630   53.8060 N.am    9  THR9       -0.1950
     13  CA        31.2500   46.2490   54.2750 C.3     9  THR9        0.1897
     14  C         30.3240   47.4570   54.1850 C.2     9  THR9        0.2313
     15  O         30.4500   48.4030   54.9620 O.2     9  THR9       -0.2863
     16  CB        32.5140   46.5050   53.4400 C.3     9  THR9        0.1794
     17  OG1       32.1730   46.5200   52.0490 O.3     9  THR9       -0.2208
     18  CG2       33.5390   45.4130   53.6880 C.3     9  THR9        0.0378
     19  N         30.8210   44.8720   58.6060 N.3    36  ALA36      -0.1245
     20  CA        32.1930   44.5580   58.9880 C.3    36  ALA36       0.1562
     21  C         32.8490   45.8000   59.5670 C.2    36  ALA36       0.2260
     22  O         32.8770   46.8560   58.9320 O.2    36  ALA36      -0.2867
     23  CB        32.9720   44.0690   57.7800 C.3    36  ALA36       0.0290
     24  N         36.2340   46.3290   60.6040 N.3    38  SER38      -0.1203
     25  CA        37.5460   46.7120   60.0980 C.3    38  SER38       0.2005
     26  C         37.9410   45.9800   58.8240 C.2    38  SER38       0.2460
     27  O         38.7090   45.0170   58.8650 O.2    38  SER38      -0.2732
     28  CB        38.6020   46.4530   61.1740 C.3    38  SER38       0.2103
     29  OG        38.2080   47.0000   62.4220 O.3    38  SER38      -0.2182
     30  N         37.4300   46.4320   57.6690 N.am   39  PRO39      -0.2728
     31  CA        37.7730   45.7740   56.4060 C.3    39  PRO39       0.1401
     32  C         39.2590   45.9390   56.0780 C.2    39  PRO39       0.2269
     33  O         39.8980   46.8970   56.5210 O.2    39  PRO39      -0.2865
     34  CB        36.8640   46.4750   55.4010 C.3    39  PRO39       0.0296
     35  CG        36.7760   47.8580   55.9540 C.3    39  PRO39       0.0237
     36  CD        36.5760   47.6100   57.4360 C.3    39  PRO39       0.0939
     37  N         30.1410   44.2550   63.3240 N.3    69  PHE69      -0.1227
     38  CA        30.8590   43.0990   63.8470 C.3    69  PHE69       0.1736
     39  C         32.3180   43.1360   63.3830 C.2    69  PHE69       0.2596
     40  O         32.6370   43.6640   62.3270 O.2    69  PHE69      -0.2718
     41  CB        30.2010   41.7850   63.3860 C.3    69  PHE69       0.0547
     42  CG        30.4720   41.4300   61.9440 C.ar   69  PHE69      -0.0202
     43  CD1       31.5510   40.6150   61.6030 C.ar   69  PHE69      -0.0042
     44  CD2       29.6540   41.9180   60.9310 C.ar   69  PHE69      -0.0042
     45  CE1       31.8140   40.2900   60.2660 C.ar   69  PHE69      -0.0003
     46  CE2       29.9040   41.6030   59.5890 C.ar   69  PHE69      -0.0003
     47  CZ        30.9850   40.7890   59.2550 C.ar   69  PHE69      -0.0000
     48  N         33.2000   42.5580   64.1920 N.am   70  SER70      -0.1938
     49  CA        34.6140   42.4840   63.8590 C.3    70  SER70       0.2055
     50  C         34.9650   41.0050   63.7110 C.2    70  SER70       0.2643
     51  O         34.1130   40.1390   63.9100 O.2    70  SER70      -0.2714
     52  CB        35.4670   43.1430   64.9480 C.3    70  SER70       0.2130
     53  OG        35.0290   42.7600   66.2390 O.3    70  SER70      -0.2179
     54  N         36.2160   40.7280   63.3630 N.am   71  ASP71      -0.1957
     55  CA        36.7080   39.3660   63.1450 C.3    71  ASP71       0.1840
     56  C         35.8730   38.5660   62.1350 C.2    71  ASP71       0.2622
     57  O         35.3060   39.1350   61.2030 O.2    71  ASP71      -0.2715
     58  CB        36.8160   38.6300   64.4760 C.3    71  ASP71       0.1450
     59  CG        35.6930   37.6430   64.7440 C.2    71  ASP71       0.3671
     60  OD1       34.5830   38.1240   65.0480 O.co2  71  ASP71      -0.2456
     61  OD2       35.9300   36.4100   64.6470 O.co2  71  ASP71      -0.2456
     62  N         35.8110   37.2510   62.3240 N.am   72  LEU72      -0.1963
     63  CA        35.0950   36.3430   61.4290 C.3    72  LEU72       0.1728
     64  C         33.5740   36.4790   61.4090 C.2    72  LEU72       0.2616
     65  O         32.9110   36.4360   62.4420 O.2    72  LEU72      -0.2715
     66  CB        35.4620   34.9010   61.7770 C.3    72  LEU72       0.0311
     67  CG        35.4040   33.8770   60.6480 C.3    72  LEU72       0.0022
     68  CD1       36.4980   34.1500   59.6280 C.3    72  LEU72       0.0001
     69  CD2       35.5120   32.4550   61.1940 C.3    72  LEU72       0.0001
     70  N         33.0920   36.6510   60.1920 N.am   73  MET73      -0.1963
     71  CA        31.6830   36.7450   59.9950 C.3    73  MET73       0.1736
     72  C         30.9850   35.5020   60.5460 C.2    73  MET73       0.2616
     73  O         29.9850   35.6000   61.2620 O.2    73  MET73      -0.2715
     74  CB        31.3880   36.9160   58.4960 C.3    73  MET73       0.0427
     75  CG        29.9200   37.1230   58.1620 C.3    73  MET73       0.0599
     76  SD        28.9630   35.5860   58.1980 S.3    73  MET73      -0.1393
     77  CE        29.4280   34.8800   56.6200 C.3    73  MET73       0.0692
     78  N         31.5240   34.3290   60.2290 N.am   74  ALA74      -0.1977
     79  CA        30.9380   33.0750   60.6820 C.3    74  ALA74       0.1597
     80  C         30.8460   33.0080   62.2100 C.2    74  ALA74       0.2287
     81  O         29.8550   32.5160   62.7510 O.2    74  ALA74      -0.2864
     82  CB        31.7510   31.8880   60.1450 C.3    74  ALA74       0.0319
     83  N         23.5210   36.4500   50.4480 N.3    87  ARG87      -0.1231
     84  CA        24.5370   36.9780   49.5410 C.3    87  ARG87       0.1694
     85  C         23.7910   37.5270   48.3280 C.2    87  ARG87       0.2592
     86  O         22.8900   36.8740   47.8050 O.2    87  ARG87      -0.2718
     87  CB        25.5060   35.8820   49.0700 C.3    87  ARG87       0.0321
     88  CG        26.4440   35.3520   50.1440 C.3    87  ARG87       0.0489
     89  CD        27.3430   36.4490   50.6770 C.3    87  ARG87       0.2205
     90  NE        28.3130   36.9200   49.6880 N.pl3  87  ARG87      -0.0865
     91  CZ        29.1120   37.9660   49.8790 C.cat  87  ARG87       0.5346
     92  NH1       29.0470   38.6470   51.0160 N.pl3  87  ARG87       0.1354
     93  NH2       29.9820   38.3270   48.9450 N.pl3  87  ARG87       0.1354
     94  N         24.1430   38.7320   47.8990 N.am   88  GLY88      -0.1957
     95  CA        23.4950   39.2960   46.7320 C.3    88  GLY88       0.1869
     96  C         24.3190   38.9370   45.5110 C.2    88  GLY88       0.2309
     97  O         25.5410   39.0780   45.5340 O.2    88  GLY88      -0.2863
     98  N         24.8560   39.9910   41.7940 N.3    90  ARG90      -0.1245
     99  CA        24.6010   40.9010   40.6820 C.3    90  ARG90       0.1563
    100  C         24.9650   40.1700   39.3920 C.2    90  ARG90       0.2260
    101  O         25.6080   39.1220   39.4210 O.2    90  ARG90      -0.2867
    102  CB        25.4530   42.1610   40.8120 C.3    90  ARG90       0.0307
    103  CG        25.3400   42.8640   42.1490 C.3    90  ARG90       0.0489
    104  CD        26.0010   44.2250   42.0910 C.3    90  ARG90       0.2205
    105  NE        27.3500   44.1620   41.5290 N.pl3  90  ARG90      -0.0865
    106  CZ        28.3990   43.6270   42.1470 C.cat  90  ARG90       0.5346
    107  NH1       29.5860   43.6150   41.5530 N.pl3  90  ARG90       0.1354
    108  NH2       28.2660   43.1090   43.3590 N.pl3  90  ARG90       0.1354
    109  N         27.0460   41.0930   37.3430 N.3    92  VAL92      -0.1231
    110  CA        28.4820   41.2730   37.1450 C.3    92  VAL92       0.1692
    111  C         29.2860   40.7070   38.3120 C.2    92  VAL92       0.2592
    112  O         30.4250   41.1190   38.5580 O.2    92  VAL92      -0.2718
    113  CB        28.8360   42.7730   36.9870 C.3    92  VAL92       0.0266
    114  CG1       28.1120   43.3550   35.7760 C.3    92  VAL92       0.0020
    115  CG2       28.4560   43.5320   38.2480 C.3    92  VAL92       0.0020
    116  N         28.6940   39.7600   39.0290 N.am   93  ALA93      -0.1966
    117  CA        29.3590   39.1540   40.1750 C.3    93  ALA93       0.1728
    118  C         30.4290   38.1400   39.7820 C.2    93  ALA93       0.2616
    119  O         30.3240   37.4670   38.7550 O.2    93  ALA93      -0.2715
    120  CB        28.3280   38.4850   41.0780 C.3    93  ALA93       0.0334
    121  N         31.4640   38.0500   40.6110 N.am   94  ASP94      -0.1971
    122  CA        32.5410   37.0930   40.4020 C.3    94  ASP94       0.1709
    123  C         31.9660   35.8390   41.0440 C.2    94  ASP94       0.2293
    124  O         32.1350   35.6040   42.2390 O.2    94  ASP94      -0.2864
    125  CB        33.8060   37.5600   41.1340 C.3    94  ASP94       0.1436
    126  CG        34.9790   36.6040   40.9610 C.2    94  ASP94       0.3671
    127  OD1       36.1150   37.0030   41.2880 O.co2  94  ASP94      -0.2456
    128  OD2       34.7690   35.4600   40.5100 O.co2  94  ASP94      -0.2456
    129  N         34.1800   33.4330   42.9020 N.3    97  TYR97      -0.1227
    130  CA        34.5750   33.9530   44.2050 C.3    97  TYR97       0.1736
    131  C         33.4850   33.6440   45.2300 C.2    97  TYR97       0.2595
    132  O         33.7700   33.2700   46.3660 O.2    97  TYR97      -0.2718
    133  CB        34.8120   35.4630   44.1360 C.3    97  TYR97       0.0548
    134  CG        34.9740   36.0970   45.4950 C.ar   97  TYR97      -0.0200
    135  CD1       33.9340   36.8250   46.0750 C.ar   97  TYR97      -0.0009
    136  CD2       36.1510   35.9360   46.2220 C.ar   97  TYR97      -0.0009
    137  CE1       34.0660   37.3740   47.3420 C.ar   97  TYR97       0.0417
    138  CE2       36.2920   36.4800   47.4930 C.ar   97  TYR97       0.0417
    139  CZ        35.2470   37.1960   48.0460 C.ar   97  TYR97       0.1957
    140  OH        35.3820   37.7280   49.3070 O.3    97  TYR97      -0.2866
    141  N         32.2300   33.7930   44.8200 N.am   98  GLU98      -0.1979
    142  CA        31.1100   33.5160   45.7090 C.3    98  GLU98       0.1602
    143  C         31.0770   32.0400   46.1130 C.2    98  GLU98       0.2287
    144  O         30.6680   31.6990   47.2210 O.2    98  GLU98      -0.2864
    145  CB        29.7960   33.8920   45.0240 C.3    98  GLU98       0.0415
    146  CG        29.6080   35.3860   44.8320 C.3    98  GLU98       0.1163
    147  CD        29.4950   36.1210   46.1520 C.2    98  GLU98       0.3649
    148  OE1       29.0370   35.5040   47.1340 O.co2  98  GLU98      -0.2457
    149  OE2       29.8530   37.3150   46.2120 O.co2  98  GLU98      -0.2457
    150  N         33.7450   30.1020   46.3570 N.3   100  GLN100     -0.1231
    151  CA        34.8620   29.9230   47.2820 C.3   100  GLN100      0.1698
    152  C         34.4060   30.3280   48.6720 C.2   100  GLN100      0.2592
    153  O         34.5940   29.6060   49.6520 O.2   100  GLN100     -0.2718
    154  CB        36.0230   30.8340   46.9060 C.3   100  GLN100      0.0381
    155  CG        37.2130   30.1590   46.2990 C.3   100  GLN100      0.0905
    156  CD        38.4270   31.0690   46.3140 C.2   100  GLN100      0.2608
    157  OE1       39.0340   31.2990   47.3640 O.2   100  GLN100     -0.2717
    158  NE2       38.7750   31.6050   45.1520 N.am  100  GLN100     -0.0878
    159  N         33.8150   31.5140   48.7360 N.am  101  LEU101     -0.1980
    160  CA        33.3330   32.0860   49.9840 C.3   101  LEU101      0.1596
    161  C         32.2710   31.2200   50.6580 C.2   101  LEU101      0.2287
    162  O         32.3430   30.9540   51.8580 O.2   101  LEU101     -0.2864
    163  CB        32.7700   33.4820   49.7040 C.3   101  LEU101      0.0297
    164  CG        32.7590   34.5120   50.8300 C.3   101  LEU101      0.0022
    165  CD1       34.1900   34.7980   51.2790 C.3   101  LEU101      0.0001
    166  CD2       32.1030   35.7900   50.3220 C.3   101  LEU101      0.0001
    167  N         33.8470   28.0480   52.0880 N.3   104  MET104     -0.1230
    168  CA        34.6580   28.3080   53.2800 C.3   104  MET104      0.1702
    169  C         33.7020   28.5530   54.4540 C.2   104  MET104      0.2592
    170  O         33.8770   27.9970   55.5390 O.2   104  MET104     -0.2718
    171  CB        35.5440   29.5390   53.0850 C.3   104  MET104      0.0401
    172  CG        36.2990   29.9880   54.3580 C.3   104  MET104      0.0596
    173  SD        37.3220   28.7030   55.1090 S.3   104  MET104     -0.1393
    174  CE        38.7780   28.7400   54.0240 C.3   104  MET104      0.0692
    175  N         32.6860   29.3880   54.2380 N.am  105  ASN105     -0.1974
    176  CA        31.7340   29.6700   55.3080 C.3   105  ASN105      0.1688
    177  C         30.9740   28.4160   55.7500 C.2   105  ASN105      0.2292
    178  O         30.6050   28.2810   56.9190 O.2   105  ASN105     -0.2864
    179  CB        30.7630   30.7840   54.8870 C.3   105  ASN105      0.1181
    180  CG        31.4040   32.1740   54.9550 C.2   105  ASN105      0.2629
    181  OD1       32.1410   32.4830   55.8910 O.2   105  ASN105     -0.2716
    182  ND2       31.1100   33.0170   53.9750 N.am  105  ASN105     -0.0877
    183  N         33.3000   26.4640   57.9900 N.3   108  LEU108     -0.1245
    184  CA        33.3450   27.1260   59.2950 C.3   108  LEU108      0.1561
    185  C         32.0840   26.9480   60.1300 C.2   108  LEU108      0.2260
    186  O         32.1520   26.7070   61.3360 O.2   108  LEU108     -0.2867
    187  CB        33.6100   28.6180   59.1000 C.3   108  LEU108      0.0270
    188  CG        34.9360   29.0100   58.4480 C.3   108  LEU108      0.0019
    189  CD1       34.8990   30.4800   58.0440 C.3   108  LEU108      0.0001
    190  CD2       36.0790   28.7450   59.4240 C.3   108  LEU108      0.0001
@<TRIPOS>BOND
     1   114   113    1
     2   113   110    1
     3   113   115    1
     4   110   109    1
     5   110   111    1
     6   111   112    2
     7   111   116   am
     8   119   118    2
     9   116   117    1
    10   100   101    2
    11   100    99    1
    12   118   117    1
    13   118   121   am
    14   117   120    1
    15   122   121    1
    16   122   123    1
    17   122   125    1
    18   128   126   ar
    19    99   102    1
    20    99    98    1
    21   102   103    1
    22   126   125    1
    23   126   127   ar
    24   123   124    2
    25   105   104    1
    26   105   106    2
    27   107   106    1
    28   104   103    1
    29   106   108    1
    30   129   130    1
    31   133   130    1
    32   133   134    1
    33   130   131    1
    34   141   131   am
    35   141   142    1
    36   146   145    1
    37   146   147    1
    38   145   142    1
    39   158   156   am
    40   131   132    2
    41   134   135   ar
    42   134   136   ar
    43    96    97    2
    44    96    95    1
    45   142   143    1
    46   135   137   ar
    47   143   144    2
    48   147   149   ar
    49   147   148   ar
    50   136   138   ar
    51   155   156    1
    52   155   154    1
    53   156   157    2
    54   150   151    1
    55    95    94    1
    56   154   151    1
    57   151   152    1
    58   137   139   ar
    59   138   139   ar
    60    86    85    2
    61    94    85   am
    62   139   140    1
    63    85    84    1
    64   152   159   am
    65   152   153    2
    66   159   160    1
    67    93    91    1
    68    87    84    1
    69    87    88    1
    70    84    83    1
    71    90    91    2
    72    90    89    1
    73   163   160    1
    74   163   164    1
    75    91    92    1
    76   160   161    1
    77    88    89    1
    78   166   164    1
    79   161   162    2
    80   164   165    1
    81    17    16    1
    82   167   168    1
    83   171   168    1
    84   171   172    1
    85   168   169    1
    86    16    18    1
    87    16    13    1
    88     4     3    2
    89    12    13    1
    90    12    10   am
    91   182   180   am
    92   174   173    1
    93     9    10    1
    94     9     8    1
    95    14    13    1
    96    14    15    2
    97   175   169   am
    98   175   176    1
    99   172   173    1
   100   169   170    2
   101    10    11    2
   102     3     8   am
   103     3     2    1
   104   179   180    1
   105   179   176    1
   106   180   181    2
   107   176   177    1
   108    34    35    1
   109    34    31    1
   110     7     1    1
   111     7     6    1
   112     1     2    1
   113     6     5    1
   114   177   178    2
   115     2     5    1
   116    35    36    1
   117    32    31    1
   118    32    33    2
   119    31    30    1
   120    77    76    1
   121    36    30    1
   122    30    26   am
   123    23    20    1
   124   183   184    1
   125   189   188    1
   126    75    76    1
   127    75    74    1
   128   188   187    1
   129   188   190    1
   130    74    71    1
   131    19    20    1
   132    26    27    2
   133    26    25    1
   134    22    21    2
   135    20    21    1
   136   187   184    1
   137    47    46   ar
   138    47    45   ar
   139   184   185    1
   140    46    44   ar
   141    68    67    1
   142    71    70    1
   143    71    72    1
   144    25    24    1
   145    25    28    1
   146   185   186    2
   147    82    79    1
   148    70    64   am
   149    78    72   am
   150    78    79    1
   151    45    43   ar
   152    72    73    2
   153    67    69    1
   154    67    66    1
   155    79    80    1
   156    44    42   ar
   157    28    29    1
   158    57    56    2
   159    64    63    1
   160    64    65    2
   161    63    66    1
   162    63    62    1
   163    43    42   ar
   164    42    41    1
   165    56    62   am
   166    56    55    1
   167    80    81    2
   168    40    39    2
   169    55    54    1
   170    55    58    1
   171    37    38    1
   172    54    50   am
   173    39    38    1
   174    39    48   am
   175    41    38    1
   176    50    49    1
   177    50    51    2
   178    49    48    1
   179    49    52    1
   180    58    59    1
   181    61    59   ar
   182    59    60   ar
   183    52    53    1
