@<TRIPOS>MOLECULE
tmp/1h21D03.pdb
 115 111 0 0 0
SMALL
GASTEIGER

@<TRIPOS>ATOM
      1  N         90.0820  -34.4910   45.0630 N.3   139  LEU139     -0.1245
      2  CA        91.1950  -33.6190   45.4610 C.3   139  LEU139      0.1561
      3  C         92.5500  -34.2350   45.1730 C.2   139  LEU139      0.2260
      4  O         92.8340  -35.3440   45.5760 O.2   139  LEU139     -0.2867
      5  CB        91.1160  -33.2510   46.9440 C.3   139  LEU139      0.0270
      6  CG        89.7860  -32.6210   47.3840 C.3   139  LEU139      0.0019
      7  CD1       89.8520  -32.2720   48.8720 C.3   139  LEU139      0.0001
      8  CD2       89.5040  -31.3620   46.5750 C.3   139  LEU139      0.0001
      9  N         94.7850  -35.7870   48.1160 N.3   142  ILE142     -0.1245
     10  CA        94.3880  -37.1320   48.4960 C.3   142  ILE142      0.1561
     11  C         94.6230  -38.1790   47.4010 C.2   142  ILE142      0.2260
     12  O         95.0480  -39.2970   47.6950 O.2   142  ILE142     -0.2867
     13  CB        92.9410  -37.1730   48.9270 C.3   142  ILE142      0.0252
     14  CG1       92.6950  -36.1870   50.0720 C.3   142  ILE142      0.0019
     15  CG2       92.5740  -38.5870   49.3350 C.3   142  ILE142      0.0019
     16  CD1       91.2910  -36.2930   50.6720 C.3   142  ILE142      0.0001
     17  N         77.4610  -39.7470   51.1950 N.3   199  VAL199     -0.1245
     18  CA        76.8410  -38.4580   50.8870 C.3   199  VAL199      0.1561
     19  C         75.3370  -38.4920   51.1460 C.2   199  VAL199      0.2260
     20  O         74.7760  -37.5860   51.7690 O.2   199  VAL199     -0.2867
     21  CB        77.1320  -38.0240   49.4290 C.3   199  VAL199      0.0252
     22  CG1       76.4830  -36.6920   49.1400 C.3   199  VAL199      0.0019
     23  CG2       78.6380  -37.9190   49.2150 C.3   199  VAL199      0.0019
     24  N         74.7540  -39.3510   55.2680 N.3   202  CYS202     -0.1235
     25  CA        75.2090  -38.2320   56.0920 C.3   202  CYS202      0.1677
     26  C         74.3380  -37.0400   55.7420 C.2   202  CYS202      0.2270
     27  O         73.9010  -36.2910   56.6200 O.2   202  CYS202     -0.2867
     28  CB        76.6430  -37.8680   55.7720 C.3   202  CYS202      0.0956
     29  SG        77.8140  -39.1080   56.2030 S.3   202  CYS202     -0.0801
     30  N         73.0730  -33.4650   57.5930 N.3   206  HIS206     -0.1226
     31  CA        73.9550  -32.3890   57.2210 C.3   206  HIS206      0.1752
     32  C         73.7300  -31.6330   55.9300 C.2   206  HIS206      0.2595
     33  O         74.3820  -30.6030   55.7320 O.2   206  HIS206     -0.2718
     34  CB        75.3770  -32.8750   57.3370 C.3   206  HIS206      0.0759
     35  CG        75.7180  -33.3030   58.7230 C.ar  206  HIS206      0.0818
     36  ND1       75.8460  -32.4270   59.7800 N.ar  206  HIS206     -0.2268
     37  CD2       75.9240  -34.5410   59.2350 C.ar  206  HIS206      0.1154
     38  CE1       76.1190  -33.1350   60.8740 C.ar  206  HIS206      0.1986
     39  NE2       76.1770  -34.4240   60.5970 N.ar  206  HIS206     -0.2212
     40  N         72.8340  -32.1200   55.0680 N.am  207  MET207     -0.1979
     41  CA        72.5410  -31.4330   53.8070 C.3   207  MET207      0.1605
     42  C         71.0530  -31.3480   53.5390 C.2   207  MET207      0.2287
     43  O         70.6350  -31.2320   52.3820 O.2   207  MET207     -0.2864
     44  CB        73.2070  -32.1040   52.6000 C.3   207  MET207      0.0413
     45  CG        74.6070  -31.6260   52.2920 C.3   207  MET207      0.0598
     46  SD        75.8340  -32.7240   52.9640 S.3   207  MET207     -0.1393
     47  CE        75.6790  -34.1540   51.7660 C.3   207  MET207      0.0692
     48  N         74.5140  -28.0810   58.1960 N.3   215  TRP215     -0.1227
     49  CA        75.6280  -27.1430   58.0990 C.3   215  TRP215      0.1737
     50  C         76.5890  -27.3880   56.9470 C.2   215  TRP215      0.2595
     51  O         77.3350  -26.4840   56.5820 O.2   215  TRP215     -0.2718
     52  CB        76.4750  -27.1970   59.3720 C.3   215  TRP215      0.0564
     53  CG        75.6960  -27.0600   60.6220 C.ar  215  TRP215      0.0003
     54  CD1       74.8110  -26.0650   60.9390 C.ar  215  TRP215      0.0946
     55  CD2       75.6820  -27.9760   61.7280 C.ar  215  TRP215      0.0152
     56  NE1       74.2410  -26.3110   62.1650 N.ar  215  TRP215     -0.2442
     57  CE2       74.7580  -27.4720   62.6750 C.ar  215  TRP215      0.0810
     58  CE3       76.3560  -29.1800   62.0110 C.ar  215  TRP215      0.0012
     59  CZ2       74.4930  -28.1290   63.8860 C.ar  215  TRP215      0.0191
     60  CZ3       76.0930  -29.8310   63.2090 C.ar  215  TRP215      0.0001
     61  CH2       75.1670  -29.3040   64.1330 C.ar  215  TRP215      0.0015
     62  N         76.5980  -28.5870   56.3750 N.am  216  ALA216     -0.1980
     63  CA        77.5810  -28.8870   55.3310 C.3   216  ALA216      0.1597
     64  C         77.2890  -28.6000   53.8560 C.2   216  ALA216      0.2287
     65  O         76.1570  -28.7250   53.3740 O.2   216  ALA216     -0.2864
     66  CB        78.0850  -30.3170   55.4940 C.3   216  ALA216      0.0319
     67  N         79.0280  -29.4220   49.9470 N.3   218  GLY218     -0.1225
     68  CA        80.0300  -30.2180   49.2740 C.3   218  GLY218      0.1811
     69  C         79.5090  -31.6190   49.1650 C.2   218  GLY218      0.2280
     70  O         78.8910  -32.0980   50.1060 O.2   218  GLY218     -0.2866
     71  N         81.4960  -34.2990   48.0530 N.3   220  MET220     -0.1230
     72  CA        82.6440  -35.1660   47.9010 C.3   220  MET220      0.1702
     73  C         82.3200  -36.3630   48.7940 C.2   220  MET220      0.2592
     74  O         81.5410  -36.2380   49.7430 O.2   220  MET220     -0.2718
     75  CB        83.8900  -34.4770   48.4330 C.3   220  MET220      0.0401
     76  CG        84.4910  -33.4810   47.4930 C.3   220  MET220      0.0596
     77  SD        85.9690  -32.7600   48.2180 S.3   220  MET220     -0.1393
     78  CE        85.1580  -31.7170   49.4540 C.3   220  MET220      0.0692
     79  N         82.8840  -37.5240   48.5000 N.am  221  ASP221     -0.1960
     80  CA        82.6070  -38.6640   49.3380 C.3   221  ASP221      0.1840
     81  C         83.1460  -38.3540   50.7310 C.2   221  ASP221      0.2622
     82  O         84.2890  -37.9120   50.8860 O.2   221  ASP221     -0.2715
     83  CB        83.2530  -39.9180   48.7980 C.3   221  ASP221      0.1450
     84  CG        82.7900  -41.1210   49.5340 C.2   221  ASP221      0.3671
     85  OD1       81.5620  -41.2410   49.7130 O.co2 221  ASP221     -0.2456
     86  OD2       83.6240  -41.8980   50.0220 O.co2 221  ASP221     -0.2456
     87  N         82.3170  -38.5620   51.7500 N.am  222  CYS222     -0.1968
     88  CA        82.7150  -38.2520   53.1240 C.3   222  CYS222      0.1712
     89  C         83.7450  -39.1800   53.7720 C.2   222  CYS222      0.2296
     90  O         84.5260  -38.7590   54.6200 O.2   222  CYS222     -0.2864
     91  CB        81.4680  -38.1740   54.0030 C.3   222  CYS222      0.0983
     92  SG        80.0010  -37.4410   53.1880 S.3   222  CYS222     -0.0798
     93  N         86.8810  -40.5890   53.2590 N.3   224  PRO224     -0.2102
     94  CA        88.2960  -40.3320   53.5580 C.3   224  PRO224      0.1504
     95  C         88.6290  -39.4630   54.7530 C.2   224  PRO224      0.2576
     96  O         89.5960  -39.7200   55.4800 O.2   224  PRO224     -0.2718
     97  CB        88.8180  -39.7090   52.2730 C.3   224  PRO224      0.0282
     98  CG        87.8470  -40.1010   51.2480 C.3   224  PRO224      0.0208
     99  CD        86.5210  -40.0360   51.9510 C.3   224  PRO224      0.0893
    100  N         87.8080  -38.4550   54.9870 N.am  225  CYS225     -0.1957
    101  CA        88.0670  -37.5190   56.0680 C.3   225  CYS225      0.1843
    102  C         87.2970  -37.7290   57.3560 C.2   225  CYS225      0.2625
    103  O         87.7670  -37.3310   58.4130 O.2   225  CYS225     -0.2714
    104  CB        87.8280  -36.0990   55.5740 C.3   225  CYS225      0.0997
    105  SG        88.7550  -35.6690   54.1070 S.3   225  CYS225     -0.0797
    106  N         86.1230  -38.3440   57.2850 N.am  226  HIS226     -0.1973
    107  CA        85.3130  -38.5390   58.4830 C.3   226  HIS226      0.1656
    108  C         85.1670  -39.9940   58.9780 C.2   226  HIS226      0.2291
    109  O         84.1080  -40.3840   59.4930 O.2   226  HIS226     -0.2864
    110  CB        83.9440  -37.8760   58.2960 C.3   226  HIS226      0.0771
    111  CG        84.0120  -36.3830   58.1180 C.ar  226  HIS226      0.0820
    112  ND1       84.5400  -35.5150   59.0430 N.ar  226  HIS226     -0.2267
    113  CD2       83.6190  -35.6030   57.0800 C.ar  226  HIS226      0.1154
    114  CE1       84.4570  -34.2700   58.5630 C.ar  226  HIS226      0.1986
    115  NE2       83.9060  -34.2600   57.3680 N.ar  226  HIS226     -0.2212
@<TRIPOS>BOND
     1     1     2    1
     2     3     2    1
     3     3     4    2
     4     2     5    1
     5     8     6    1
     6     5     6    1
     7     6     7    1
     8    11    12    2
     9    11    10    1
    10    76    77    1
    11    76    75    1
    12    72    71    1
    13    72    75    1
    14    72    73    1
    15     9    10    1
    16    77    78    1
    17    10    13    1
    18    79    73   am
    19    79    80    1
    20    73    74    2
    21    83    80    1
    22    83    84    1
    23    13    15    1
    24    13    14    1
    25    22    21    1
    26    69    68    1
    27    69    70    2
    28    23    21    1
    29    68    67    1
    30    80    81    1
    31    21    18    1
    32    84    85   ar
    33    84    86   ar
    34    14    16    1
    35    81    82    2
    36    81    87   am
    37    18    19    1
    38    18    17    1
    39    19    20    2
    40    98    99    1
    41    98    97    1
    42    87    88    1
    43    47    46    1
    44    99    93    1
    45    97    94    1
    46    45    44    1
    47    45    46    1
    48    43    42    2
    49    44    41    1
    50    88    89    1
    51    88    91    1
    52    92    91    1
    53    93    94    1
    54    65    64    2
    55    42    41    1
    56    94    95    1
    57    89    90    2
    58    41    40    1
    59    64    63    1
    60   105   104    1
    61    95   100   am
    62    95    96    2
    63   100   101    1
    64    40    32   am
    65    24    25    1
    66    63    66    1
    67    63    62    1
    68   104   101    1
    69    33    32    2
    70    26    25    1
    71    26    27    2
    72    28    25    1
    73    28    29    1
    74    32    31    1
    75   101   102    1
    76    62    50   am
    77    51    50    2
    78    50    49    1
    79   113   115   ar
    80   113   111   ar
    81    31    34    1
    82    31    30    1
    83   106   102   am
    84   106   107    1
    85    34    35    1
    86   102   103    2
    87   115   114   ar
    88    49    48    1
    89    49    52    1
    90   111   110    1
    91   111   112   ar
    92   110   107    1
    93   107   108    1
    94   114   112   ar
    95    35    37   ar
    96    35    36   ar
    97   108   109    2
    98    37    39   ar
    99    52    53    1
   100    36    38   ar
   101    39    38   ar
   102    53    54   ar
   103    53    55   ar
   104    54    56   ar
   105    55    58   ar
   106    55    57   ar
   107    58    60   ar
   108    56    57   ar
   109    57    59   ar
   110    60    61   ar
   111    59    61   ar
