@<TRIPOS>MOLECULE
tmp/1h21D00.pdb
 94 90 0 0 0
SMALL
GASTEIGER

@<TRIPOS>ATOM
      1  N         90.0820  -34.4910   45.0630 N.3   139  LEU139     -0.1245
      2  CA        91.1950  -33.6190   45.4610 C.3   139  LEU139      0.1561
      3  C         92.5500  -34.2350   45.1730 C.2   139  LEU139      0.2260
      4  O         92.8340  -35.3440   45.5760 O.2   139  LEU139     -0.2867
      5  CB        91.1160  -33.2510   46.9440 C.3   139  LEU139      0.0270
      6  CG        89.7860  -32.6210   47.3840 C.3   139  LEU139      0.0019
      7  CD1       89.8520  -32.2720   48.8720 C.3   139  LEU139      0.0001
      8  CD2       89.5040  -31.3620   46.5750 C.3   139  LEU139      0.0001
      9  N         95.5350  -33.6730   46.3950 N.3   141  HIS141     -0.1226
     10  CA        96.3510  -34.0580   47.5280 C.3   141  HIS141      0.1752
     11  C         96.0620  -35.4840   47.9090 C.2   141  HIS141      0.2595
     12  O         96.9760  -36.2730   48.0760 O.2   141  HIS141     -0.2718
     13  CB        96.0810  -33.2050   48.7520 C.3   141  HIS141      0.0759
     14  CG        96.6980  -33.7630   49.9930 C.ar  141  HIS141      0.0818
     15  ND1       98.0550  -33.8930   50.1760 N.ar  141  HIS141     -0.2268
     16  CD2       96.1220  -34.3180   51.0870 C.ar  141  HIS141      0.1154
     17  CE1       98.2620  -34.5020   51.3410 C.ar  141  HIS141      0.1986
     18  NE2       97.1210  -34.7840   51.9350 N.ar  141  HIS141     -0.2212
     19  N         94.7850  -35.7870   48.1160 N.am  142  ILE142     -0.1980
     20  CA        94.3880  -37.1320   48.4960 C.3   142  ILE142      0.1595
     21  C         94.6230  -38.1790   47.4010 C.2   142  ILE142      0.2287
     22  O         95.0480  -39.2970   47.6950 O.2   142  ILE142     -0.2864
     23  CB        92.9410  -37.1730   48.9270 C.3   142  ILE142      0.0276
     24  CG1       92.6950  -36.1870   50.0720 C.3   142  ILE142      0.0022
     25  CG2       92.5740  -38.5870   49.3350 C.3   142  ILE142      0.0022
     26  CD1       91.2910  -36.2930   50.6720 C.3   142  ILE142      0.0001
     27  N         98.8690  -38.3200   46.9280 N.3   145  SER145     -0.1202
     28  CA        99.5170  -38.7640   48.1690 C.3   145  SER145      0.2020
     29  C         99.2480  -40.2370   48.5280 C.2   145  SER145      0.2618
     30  O        100.1780  -40.9890   48.8560 O.2   145  SER145     -0.2717
     31  CB        99.1240  -37.8470   49.3410 C.3   145  SER145      0.2103
     32  OG        99.5540  -36.5090   49.1270 O.3   145  SER145     -0.2182
     33  N         97.9860  -40.6430   48.4500 N.am  146  LYS146     -0.1979
     34  CA        97.5980  -42.0090   48.7570 C.3   146  LYS146      0.1596
     35  C         98.3220  -42.9940   47.8270 C.2   146  LYS146      0.2287
     36  O         99.0230  -43.9060   48.2730 O.2   146  LYS146     -0.2864
     37  CB        96.1020  -42.1390   48.5840 C.3   146  LYS146      0.0298
     38  CG        95.5330  -43.3870   49.1630 C.3   146  LYS146      0.0038
     39  CD        94.0280  -43.3620   49.0250 C.3   146  LYS146      0.0206
     40  CE        93.4160  -44.6270   49.5830 C.3   146  LYS146      0.1093
     41  NZ        91.9300  -44.6280   49.4300 N.3   146  LYS146     -0.1314
     42  N        102.0770  -43.1680   48.4590 N.3   149  TYR149     -0.1227
     43  CA       102.2260  -43.8350   49.7580 C.3   149  TYR149      0.1736
     44  C        102.0980  -45.3420   49.6440 C.2   149  TYR149      0.2595
     45  O        102.9920  -46.0970   50.0780 O.2   149  TYR149     -0.2718
     46  CB       101.1490  -43.3430   50.7060 C.3   149  TYR149      0.0548
     47  CG       101.1570  -44.0640   52.0030 C.ar  149  TYR149     -0.0200
     48  CD1      102.2960  -44.0840   52.7840 C.ar  149  TYR149     -0.0009
     49  CD2      100.0120  -44.6850   52.4880 C.ar  149  TYR149     -0.0009
     50  CE1      102.3070  -44.6980   54.0290 C.ar  149  TYR149      0.0417
     51  CE2      100.0050  -45.3040   53.7490 C.ar  149  TYR149      0.0417
     52  CZ       101.1650  -45.3020   54.5140 C.ar  149  TYR149      0.1957
     53  OH       101.1900  -45.8900   55.7690 O.3   149  TYR149     -0.2866
     54  N        100.9400  -45.7600   49.1300 N.am  150  GLU150     -0.1979
     55  CA       100.6020  -47.1670   48.9180 C.3   150  GLU150      0.1602
     56  C        101.5630  -47.8850   47.9470 C.2   150  GLU150      0.2287
     57  O        101.8340  -49.0740   48.1210 O.2   150  GLU150     -0.2864
     58  CB        99.1490  -47.2970   48.4290 C.3   150  GLU150      0.0415
     59  CG        98.0900  -46.8360   49.4410 C.3   150  GLU150      0.1163
     60  CD        96.6530  -46.9510   48.9110 C.2   150  GLU150      0.3649
     61  OE1       96.4580  -47.1730   47.6900 O.co2 150  GLU150     -0.2457
     62  OE2       95.7060  -46.8080   49.7200 O.co2 150  GLU150     -0.2457
     63  N         86.8810  -40.5890   53.2590 N.3   224  PRO224     -0.2102
     64  CA        88.2960  -40.3320   53.5580 C.3   224  PRO224      0.1504
     65  C         88.6290  -39.4630   54.7530 C.2   224  PRO224      0.2576
     66  O         89.5960  -39.7200   55.4800 O.2   224  PRO224     -0.2718
     67  CB        88.8180  -39.7090   52.2730 C.3   224  PRO224      0.0282
     68  CG        87.8470  -40.1010   51.2480 C.3   224  PRO224      0.0208
     69  CD        86.5210  -40.0360   51.9510 C.3   224  PRO224      0.0893
     70  N         87.8080  -38.4550   54.9870 N.am  225  CYS225     -0.1971
     71  CA        88.0670  -37.5190   56.0680 C.3   225  CYS225      0.1712
     72  C         87.2970  -37.7290   57.3560 C.2   225  CYS225      0.2296
     73  O         87.7670  -37.3310   58.4130 O.2   225  CYS225     -0.2864
     74  CB        87.8280  -36.0990   55.5740 C.3   225  CYS225      0.0983
     75  SG        88.7550  -35.6690   54.1070 S.3   225  CYS225     -0.0798
     76  N         90.3720  -42.7330   60.4790 N.3   229  THR229     -0.1218
     77  CA        91.4210  -43.6270   59.9970 C.3   229  THR229      0.1862
     78  C         92.7610  -43.2650   60.6460 C.2   229  THR229      0.2287
     79  O         92.8870  -42.2240   61.2890 O.2   229  THR229     -0.2866
     80  CB        91.5740  -43.5260   58.4700 C.3   229  THR229      0.1770
     81  OG1       91.8970  -42.1790   58.1110 O.3   229  THR229     -0.2211
     82  CG2       90.3070  -43.9210   57.7900 C.3   229  THR229      0.0375
     83  N         95.3910  -42.3060   59.1710 N.3   231  ALA231     -0.1231
     84  CA        95.8320  -41.0840   58.4790 C.3   231  ALA231      0.1694
     85  C         95.2950  -39.7890   59.0770 C.2   231  ALA231      0.2592
     86  O         96.0420  -38.8310   59.2320 O.2   231  ALA231     -0.2718
     87  CB        95.4970  -41.1530   56.9760 C.3   231  ALA231      0.0304
     88  N         94.0170  -39.7740   59.4390 N.am  232  THR232     -0.1953
     89  CA        93.4020  -38.5810   60.0010 C.3   232  THR232      0.1897
     90  C         93.5040  -38.4530   61.5230 C.2   232  THR232      0.2313
     91  O         92.7870  -37.6350   62.1410 O.2   232  THR232     -0.2863
     92  CB        91.9460  -38.4790   59.5710 C.3   232  THR232      0.1794
     93  OG1       91.2210  -39.5760   60.1280 O.3   232  THR232     -0.2208
     94  CG2       91.8410  -38.5140   58.0460 C.3   232  THR232      0.0378
@<TRIPOS>BOND
     1     1     2    1
     2     3     2    1
     3     3     4    2
     4     2     5    1
     5     9    10    1
     6     8     6    1
     7    27    28    1
     8     5     6    1
     9     6     7    1
    10    21    22    2
    11    21    20    1
    12    10    11    1
    13    10    13    1
    14    61    60   ar
    15    35    36    2
    16    35    34    1
    17    11    12    2
    18    11    19   am
    19    56    57    2
    20    56    55    1
    21    19    20    1
    22    28    29    1
    23    28    31    1
    24    58    55    1
    25    58    59    1
    26    33    29   am
    27    33    34    1
    28    42    43    1
    29    20    23    1
    30    29    30    2
    31    37    34    1
    32    37    38    1
    33    13    14    1
    34    60    59    1
    35    60    62   ar
    36    55    54    1
    37    23    25    1
    38    23    24    1
    39    39    38    1
    40    39    40    1
    41    32    31    1
    42    54    44   am
    43    41    40    1
    44    44    43    1
    45    44    45    2
    46    43    46    1
    47    14    15   ar
    48    14    16   ar
    49    24    26    1
    50    15    17   ar
    51    46    47    1
    52    16    18   ar
    53    68    69    1
    54    68    67    1
    55    17    18   ar
    56    69    63    1
    57    47    49   ar
    58    47    48   ar
    59    67    64    1
    60    49    51   ar
    61    48    50   ar
    62    63    64    1
    63    64    65    1
    64    51    52   ar
    65    50    52   ar
    66    75    74    1
    67    52    53    1
    68    65    70   am
    69    65    66    2
    70    70    71    1
    71    74    71    1
    72    71    72    1
    73    87    84    1
    74    72    73    2
    75    82    80    1
    76    94    92    1
    77    81    80    1
    78    80    77    1
    79    84    85    1
    80    84    83    1
    81    85    86    2
    82    85    88   am
    83    88    89    1
    84    92    89    1
    85    92    93    1
    86    77    76    1
    87    77    78    1
    88    89    90    1
    89    78    79    2
    90    90    91    2
