@<TRIPOS>MOLECULE
tmp/1h21D02.pdb
 94 91 0 0 0
SMALL
GASTEIGER

@<TRIPOS>ATOM
      1  N         77.7740  -42.5670   51.4690 N.3   198  SER198     -0.1217
      2  CA        77.9910  -41.6700   52.5930 C.3   198  SER198      0.1889
      3  C         77.2990  -40.3300   52.3790 C.2   198  SER198      0.2288
      4  O         76.6080  -39.8460   53.2650 O.2   198  SER198     -0.2866
      5  CB        79.4870  -41.4710   52.8330 C.3   198  SER198      0.2089
      6  OG        80.0880  -40.8970   51.6980 O.3   198  SER198     -0.2183
      7  N         73.4860  -40.7780   53.0840 N.3   201  SER201     -0.1202
      8  CA        73.1020  -40.9990   54.4770 C.3   201  SER201      0.2020
      9  C         73.5350  -39.8680   55.4230 C.2   201  SER201      0.2619
     10  O         72.7740  -39.4900   56.3130 O.2   201  SER201     -0.2717
     11  CB        73.5920  -42.3670   54.9690 C.3   201  SER201      0.2103
     12  OG        75.0140  -42.4180   54.9920 O.3   201  SER201     -0.2182
     13  N         74.7540  -39.3510   55.2680 N.am  202  CYS202     -0.1969
     14  CA        75.2090  -38.2320   56.0920 C.3   202  CYS202      0.1712
     15  C         74.3380  -37.0400   55.7420 C.2   202  CYS202      0.2296
     16  O         73.9010  -36.2910   56.6200 O.2   202  CYS202     -0.2864
     17  CB        76.6430  -37.8680   55.7720 C.3   202  CYS202      0.0983
     18  SG        77.8140  -39.1080   56.2030 S.3   202  CYS202     -0.0798
     19  N         71.3530  -36.7570   55.0130 N.3   204  GLU204     -0.1231
     20  CA        70.0330  -36.7120   55.6260 C.3   204  GLU204      0.1699
     21  C         69.9430  -35.6660   56.7320 C.2   204  GLU204      0.2592
     22  O         68.8890  -35.0770   56.9530 O.2   204  GLU204     -0.2718
     23  CB        69.6250  -38.0870   56.1440 C.3   204  GLU204      0.0402
     24  CG        69.5610  -39.1360   55.0640 C.3   204  GLU204      0.1161
     25  CD        68.1570  -39.6820   54.8440 C.2   204  GLU204      0.3649
     26  OE1       68.0390  -40.7300   54.1770 O.co2 204  GLU204     -0.2457
     27  OE2       67.1700  -39.0690   55.3070 O.co2 204  GLU204     -0.2457
     28  N         71.0520  -35.4350   57.4180 N.am  205  CYS205     -0.1956
     29  CA        71.0810  -34.4600   58.4850 C.3   205  CYS205      0.1843
     30  C         71.8660  -33.2270   58.0750 C.2   205  CYS205      0.2625
     31  O         71.3790  -32.0970   58.1250 O.2   205  CYS205     -0.2714
     32  CB        71.7330  -35.0790   59.7270 C.3   205  CYS205      0.0997
     33  SG        70.7320  -36.3870   60.4660 S.3   205  CYS205     -0.0797
     34  N         73.0730  -33.4650   57.5930 N.am  206  HIS206     -0.1973
     35  CA        73.9550  -32.3890   57.2210 C.3   206  HIS206      0.1656
     36  C         73.7300  -31.6330   55.9300 C.2   206  HIS206      0.2291
     37  O         74.3820  -30.6030   55.7320 O.2   206  HIS206     -0.2864
     38  CB        75.3770  -32.8750   57.3370 C.3   206  HIS206      0.0771
     39  CG        75.7180  -33.3030   58.7230 C.ar  206  HIS206      0.0820
     40  ND1       75.8460  -32.4270   59.7800 N.ar  206  HIS206     -0.2267
     41  CD2       75.9240  -34.5410   59.2350 C.ar  206  HIS206      0.1154
     42  CE1       76.1190  -33.1350   60.8740 C.ar  206  HIS206      0.1986
     43  NE2       76.1770  -34.4240   60.5970 N.ar  206  HIS206     -0.2212
     44  N         66.8710  -29.1200   58.7340 N.3   211  ASN211     -0.1225
     45  CA        67.5060  -29.9290   59.7610 C.3   211  ASN211      0.1785
     46  C         68.3630  -29.0850   60.6900 C.2   211  ASN211      0.2597
     47  O         69.0740  -28.1690   60.2600 O.2   211  ASN211     -0.2718
     48  CB        68.3490  -31.0640   59.1630 C.3   211  ASN211      0.1169
     49  CG        68.5750  -32.2070   60.1550 C.2   211  ASN211      0.2627
     50  OD1       69.4610  -32.1600   61.0400 O.2   211  ASN211     -0.2716
     51  ND2       67.7480  -33.2250   60.0350 N.am  211  ASN211     -0.0877
     52  N         68.3070  -29.4330   61.9660 N.am  212  ASP212     -0.1960
     53  CA        69.0600  -28.7610   63.0080 C.3   212  ASP212      0.1840
     54  C         70.5620  -28.9190   62.7810 C.2   212  ASP212      0.2621
     55  O         71.3600  -28.1430   63.3220 O.2   212  ASP212     -0.2715
     56  CB        68.6660  -29.3530   64.3760 C.3   212  ASP212      0.1450
     57  CG        67.1520  -29.3420   64.6140 C.2   212  ASP212      0.3671
     58  OD1       66.7080  -28.7090   65.5900 O.co2 212  ASP212     -0.2456
     59  OD2       66.4000  -29.9780   63.8330 O.co2 212  ASP212     -0.2456
     60  N         70.9420  -29.9190   61.9840 N.am  213  ALA213     -0.1977
     61  CA        72.3510  -30.1970   61.6950 C.3   213  ALA213      0.1597
     62  C         72.7830  -29.8830   60.2590 C.2   213  ALA213      0.2287
     63  O         73.8840  -30.2470   59.8470 O.2   213  ALA213     -0.2864
     64  CB        72.6770  -31.6560   62.0330 C.3   213  ALA213      0.0319
     65  N         74.5140  -28.0810   58.1960 N.3   215  TRP215     -0.1241
     66  CA        75.6280  -27.1430   58.0990 C.3   215  TRP215      0.1605
     67  C         76.5890  -27.3880   56.9470 C.2   215  TRP215      0.2264
     68  O         77.3350  -26.4840   56.5820 O.2   215  TRP215     -0.2867
     69  CB        76.4750  -27.1970   59.3720 C.3   215  TRP215      0.0550
     70  CG        75.6960  -27.0600   60.6220 C.ar  215  TRP215      0.0003
     71  CD1       74.8110  -26.0650   60.9390 C.ar  215  TRP215      0.0946
     72  CD2       75.6820  -27.9760   61.7280 C.ar  215  TRP215      0.0152
     73  NE1       74.2410  -26.3110   62.1650 N.ar  215  TRP215     -0.2442
     74  CE2       74.7580  -27.4720   62.6750 C.ar  215  TRP215      0.0810
     75  CE3       76.3560  -29.1800   62.0110 C.ar  215  TRP215      0.0012
     76  CZ2       74.4930  -28.1290   63.8860 C.ar  215  TRP215      0.0191
     77  CZ3       76.0930  -29.8310   63.2090 C.ar  215  TRP215      0.0001
     78  CH2       75.1670  -29.3040   64.1330 C.ar  215  TRP215      0.0015
     79  N         82.3170  -38.5620   51.7500 N.3   222  CYS222     -0.1235
     80  CA        82.7150  -38.2520   53.1240 C.3   222  CYS222      0.1677
     81  C         83.7450  -39.1800   53.7720 C.2   222  CYS222      0.2270
     82  O         84.5260  -38.7590   54.6200 O.2   222  CYS222     -0.2867
     83  CB        81.4680  -38.1740   54.0030 C.3   222  CYS222      0.0956
     84  SG        80.0010  -37.4410   53.1880 S.3   222  CYS222     -0.0801
     85  N         86.1230  -38.3440   57.2850 N.3   226  HIS226     -0.1241
     86  CA        85.3130  -38.5390   58.4830 C.3   226  HIS226      0.1621
     87  C         85.1670  -39.9940   58.9780 C.2   226  HIS226      0.2264
     88  O         84.1080  -40.3840   59.4930 O.2   226  HIS226     -0.2867
     89  CB        83.9440  -37.8760   58.2960 C.3   226  HIS226      0.0745
     90  CG        84.0120  -36.3830   58.1180 C.ar  226  HIS226      0.0817
     91  ND1       84.5400  -35.5150   59.0430 N.ar  226  HIS226     -0.2268
     92  CD2       83.6190  -35.6030   57.0800 C.ar  226  HIS226      0.1154
     93  CE1       84.4570  -34.2700   58.5630 C.ar  226  HIS226      0.1986
     94  NE2       83.9060  -34.2600   57.3680 N.ar  226  HIS226     -0.2212
@<TRIPOS>BOND
     1     1     2    1
     2     6     5    1
     3    79    80    1
     4     3     2    1
     5     3     4    2
     6     2     5    1
     7     7     8    1
     8    80    81    1
     9    80    83    1
    10    84    83    1
    11    81    82    2
    12    26    25   ar
    13     8    11    1
    14     8     9    1
    15    25    24    1
    16    25    27   ar
    17    11    12    1
    18    19    20    1
    19    24    23    1
    20    13     9   am
    21    13    14    1
    22     9    10    2
    23    20    23    1
    24    20    21    1
    25    37    36    2
    26    15    14    1
    27    15    16    2
    28    17    14    1
    29    17    18    1
    30    36    35    1
    31    68    67    2
    32    21    22    2
    33    21    28   am
    34    67    66    1
    35    92    94   ar
    36    92    90   ar
    37    35    38    1
    38    35    34    1
    39    85    86    1
    40    38    39    1
    41    94    93   ar
    42    28    29    1
    43    34    30   am
    44    30    31    2
    45    30    29    1
    46    66    65    1
    47    66    69    1
    48    90    89    1
    49    90    91   ar
    50    89    86    1
    51    86    87    1
    52    29    32    1
    53    93    91   ar
    54    39    41   ar
    55    39    40   ar
    56    44    45    1
    57    87    88    2
    58    48    45    1
    59    48    49    1
    60    41    43   ar
    61    69    70    1
    62    32    33    1
    63    45    46    1
    64    40    42   ar
    65    63    62    2
    66    51    49   am
    67    49    50    2
    68    62    61    1
    69    47    46    2
    70    43    42   ar
    71    70    71   ar
    72    70    72   ar
    73    46    52   am
    74    71    73   ar
    75    61    60    1
    76    61    64    1
    77    72    75   ar
    78    72    74   ar
    79    52    53    1
    80    60    54   am
    81    75    77   ar
    82    73    74   ar
    83    74    76   ar
    84    54    53    1
    85    54    55    2
    86    53    56    1
    87    77    78   ar
    88    59    57   ar
    89    76    78   ar
    90    56    57    1
    91    57    58   ar
