@<TRIPOS>MOLECULE
tmp/1h22A00.pdb
 249 247 0 0 0
SMALL
GASTEIGER

@<TRIPOS>ATOM
      1  N         -7.2400   63.8130   66.6400 N.3    67  TYR67      -0.1241
      2  CA        -6.8170   64.0600   68.0380 C.3    67  TYR67       0.1605
      3  C         -6.3900   65.5470   68.0740 C.2    67  TYR67       0.2264
      4  O         -5.7760   66.0560   67.0850 O.2    67  TYR67      -0.2867
      5  CB        -5.6110   63.2130   68.3590 C.3    67  TYR67       0.0534
      6  CG        -4.9970   63.4560   69.7150 C.ar   67  TYR67      -0.0201
      7  CD1       -5.5100   62.8460   70.8730 C.ar   67  TYR67      -0.0009
      8  CD2       -3.8770   64.2790   69.8390 C.ar   67  TYR67      -0.0009
      9  CE1       -4.9030   63.0560   72.1130 C.ar   67  TYR67       0.0417
     10  CE2       -3.2620   64.4990   71.1120 C.ar   67  TYR67       0.0417
     11  CZ        -3.7730   63.8960   72.2230 C.ar   67  TYR67       0.1957
     12  OH        -3.1780   64.1540   73.4630 O.3    67  TYR67      -0.2866
     13  N         -4.2930   68.3440   70.2990 N.3    69  ASP69      -0.1239
     14  CA        -3.2790   68.4490   71.3610 C.3    69  ASP69       0.1674
     15  C         -3.7360   69.4680   72.4320 C.2    69  ASP69       0.2266
     16  O         -3.9520   70.6390   72.1360 O.2    69  ASP69      -0.2867
     17  CB        -1.9480   68.8930   70.7180 C.3    69  ASP69       0.1410
     18  CG        -0.8380   69.1270   71.7330 C.2    69  ASP69       0.3668
     19  OD1       -1.0830   69.0190   72.9500 O.co2  69  ASP69      -0.2456
     20  OD2        0.2880   69.4120   71.3060 O.co2  69  ASP69      -0.2456
     21  N         -1.9820   69.4890   75.5130 N.3    71  GLN71      -0.1245
     22  CA        -0.9230   69.4490   76.5370 C.3    71  GLN71       0.1566
     23  C         -0.5130   70.8160   77.1220 C.2    71  GLN71       0.2260
     24  O         -0.2690   70.9140   78.3060 O.2    71  GLN71      -0.2867
     25  CB         0.3420   68.7420   75.9910 C.3    71  GLN71       0.0367
     26  CG         0.4920   67.2930   76.4470 C.3    71  GLN71       0.0905
     27  CD         1.0200   67.1020   77.9050 C.2    71  GLN71       0.2608
     28  OE1        1.8320   66.2070   78.1480 O.2    71  GLN71      -0.2717
     29  NE2        0.5680   67.9150   78.8420 N.am   71  GLN71      -0.0878
     30  N         -0.1910   73.5630   65.5170 N.3    81  TRP81      -0.1241
     31  CA        -0.3710   72.3020   64.7850 C.3    81  TRP81       0.1605
     32  C         -1.7950   71.7430   64.8810 C.2    81  TRP81       0.2264
     33  O         -2.1630   70.8040   64.1450 O.2    81  TRP81      -0.2867
     34  CB         0.6190   71.2240   65.2870 C.3    81  TRP81       0.0550
     35  CG         2.0790   71.6540   65.1870 C.ar   81  TRP81       0.0003
     36  CD1        2.9070   71.9960   66.2170 C.ar   81  TRP81       0.0946
     37  CD2        2.8300   71.8460   63.9860 C.ar   81  TRP81       0.0152
     38  NE1        4.1520   72.3960   65.7260 N.ar   81  TRP81      -0.2442
     39  CE2        4.1250   72.3170   64.3630 C.ar   81  TRP81       0.0810
     40  CE3        2.5370   71.6780   62.6180 C.ar   81  TRP81       0.0012
     41  CZ2        5.1260   72.6190   63.4210 C.ar   81  TRP81       0.0191
     42  CZ3        3.5460   71.9830   61.6750 C.ar   81  TRP81       0.0001
     43  CH2        4.8220   72.4490   62.0930 C.ar   81  TRP81       0.0015
     44  N          0.1290   67.6430   54.2440 N.3   113  TYR113     -0.1227
     45  CA         0.4120   67.7670   55.6730 C.3   113  TYR113      0.1736
     46  C          0.8260   66.4060   56.3130 C.2   113  TYR113      0.2596
     47  O          0.5620   65.3030   55.7670 O.2   113  TYR113     -0.2718
     48  CB        -0.7680   68.4370   56.4340 C.3   113  TYR113      0.0548
     49  CG        -2.1480   67.7670   56.3330 C.ar  113  TYR113     -0.0200
     50  CD1       -2.3940   66.5090   56.8900 C.ar  113  TYR113     -0.0009
     51  CD2       -3.2170   68.4470   55.7580 C.ar  113  TYR113     -0.0009
     52  CE1       -3.6690   65.9540   56.8700 C.ar  113  TYR113      0.0417
     53  CE2       -4.4870   67.9290   55.7180 C.ar  113  TYR113      0.0417
     54  CZ        -4.7310   66.6760   56.2670 C.ar  113  TYR113      0.1957
     55  OH        -6.0180   66.1720   56.2020 O.3   113  TYR113     -0.2866
     56  N          1.4690   66.4810   57.4720 N.am  114  GLY114     -0.1942
     57  CA         2.0230   65.2640   58.0340 C.3   114  GLY114      0.2014
     58  C          2.1300   64.8940   59.4930 C.2   114  GLY114      0.2639
     59  O          3.1590   64.3100   59.9200 O.2   114  GLY114     -0.2714
     60  N          1.0850   65.1740   60.2540 N.am  115  GLY115     -0.1954
     61  CA         1.1120   64.7790   61.6510 C.3   115  GLY115      0.1869
     62  C          0.9350   63.2700   61.9530 C.2   115  GLY115      0.2309
     63  O         -0.1130   62.8550   62.4640 O.2   115  GLY115     -0.2863
     64  N         -2.1730   60.7120   61.9040 N.3   118  TYR118     -0.1227
     65  CA        -3.3610   60.7980   62.7730 C.3   118  TYR118      0.1736
     66  C         -3.8110   62.2470   62.9470 C.2   118  TYR118      0.2596
     67  O         -4.8200   62.5050   63.6390 O.2   118  TYR118     -0.2718
     68  CB        -3.1070   60.2080   64.1750 C.3   118  TYR118      0.0548
     69  CG        -2.1650   61.0450   65.0270 C.ar  118  TYR118     -0.0200
     70  CD1       -2.6480   62.0780   65.8400 C.ar  118  TYR118     -0.0009
     71  CD2       -0.7710   60.8520   64.9510 C.ar  118  TYR118     -0.0009
     72  CE1       -1.7240   62.9360   66.5760 C.ar  118  TYR118      0.0417
     73  CE2        0.1250   61.6700   65.6600 C.ar  118  TYR118      0.0417
     74  CZ        -0.3590   62.7140   66.4700 C.ar  118  TYR118      0.1957
     75  OH         0.5510   63.5360   67.1690 O.3   118  TYR118     -0.2866
     76  N         -3.0550   63.2020   62.3780 N.am  119  SER119     -0.1938
     77  CA        -3.4460   64.5690   62.5420 C.3   119  SER119      0.2055
     78  C         -2.9050   65.3990   61.3900 C.2   119  SER119      0.2643
     79  O         -2.1150   64.8930   60.5460 O.2   119  SER119     -0.2714
     80  CB        -2.9560   65.1200   63.9190 C.3   119  SER119      0.2130
     81  OG        -1.5890   65.4740   63.8730 O.3   119  SER119     -0.2179
     82  N         -3.3530   66.6670   61.3390 N.am  120  GLY120     -0.1954
     83  CA        -2.9320   67.5580   60.2530 C.3   120  GLY120      0.1869
     84  C         -4.1270   68.2550   59.6040 C.2   120  GLY120      0.2309
     85  O         -5.2310   67.7020   59.6000 O.2   120  GLY120     -0.2863
     86  N         -3.5280   75.4350   58.4870 N.3   124  LEU124     -0.1245
     87  CA        -2.7090   76.0370   59.5280 C.3   124  LEU124      0.1561
     88  C         -2.0230   77.3400   59.0780 C.2   124  LEU124      0.2260
     89  O         -1.5900   77.4540   57.9290 O.2   124  LEU124     -0.2867
     90  CB        -1.6010   75.0500   59.9520 C.3   124  LEU124      0.0270
     91  CG        -2.0460   73.6370   60.3520 C.3   124  LEU124      0.0019
     92  CD1       -0.7910   72.8440   60.8240 C.3   124  LEU124      0.0001
     93  CD2       -3.0940   73.7020   61.4710 C.3   124  LEU124      0.0001
     94  N          0.9920   76.9110   57.1610 N.3   127  TYR127     -0.1241
     95  CA         0.9010   76.3600   55.7830 C.3   127  TYR127      0.1605
     96  C          0.3000   77.3870   54.8050 C.2   127  TYR127      0.2264
     97  O         -0.0620   77.0290   53.6720 O.2   127  TYR127     -0.2867
     98  CB         0.0290   75.0710   55.7350 C.3   127  TYR127      0.0534
     99  CG         0.5700   73.8700   56.5450 C.ar  127  TYR127     -0.0201
    100  CD1        1.9350   73.7560   56.8650 C.ar  127  TYR127     -0.0009
    101  CD2       -0.2970   72.8610   56.9760 C.ar  127  TYR127     -0.0009
    102  CE1        2.4190   72.6390   57.6190 C.ar  127  TYR127      0.0417
    103  CE2        0.1470   71.7640   57.7050 C.ar  127  TYR127      0.0417
    104  CZ         1.5200   71.6490   58.0260 C.ar  127  TYR127      0.1957
    105  OH         1.9580   70.5170   58.6760 O.3   127  TYR127     -0.2866
    106  N          6.0390   67.0790   54.7530 N.3   196  GLU196     -0.1231
    107  CA         6.9570   66.8800   55.8650 C.3   196  GLU196      0.1699
    108  C          6.4200   65.7860   56.7980 C.2   196  GLU196      0.2592
    109  O          5.2170   65.5940   56.8860 O.2   196  GLU196     -0.2718
    110  CB         7.1650   68.2140   56.6530 C.3   196  GLU196      0.0402
    111  CG         8.1860   68.1270   57.8060 C.3   196  GLU196      0.1161
    112  CD         7.5380   67.7910   59.1640 C.2   196  GLU196      0.3649
    113  OE1        6.2940   67.6760   59.2350 O.co2 196  GLU196     -0.2457
    114  OE2        8.2630   67.6200   60.1690 O.co2 196  GLU196     -0.2457
    115  N          7.3260   65.0850   57.4840 N.am  197  SER197     -0.1952
    116  CA         6.9500   64.0180   58.4150 C.3   197  SER197      0.1924
    117  C          6.0400   62.9760   57.6960 C.2   197  SER197      0.2314
    118  O          6.4560   62.3960   56.7090 O.2   197  SER197     -0.2863
    119  CB         6.2600   64.6280   59.6340 C.3   197  SER197      0.2116
    120  OG         6.0990   63.6280   60.6360 O.3   197  SER197     -0.2180
    121  N         -5.4010   55.8380   70.8180 N.3   276  TRP276     -0.1241
    122  CA        -4.0850   55.5240   71.3340 C.3   276  TRP276      0.1605
    123  C         -4.0590   54.1960   72.0890 C.2   276  TRP276      0.2264
    124  O         -2.9830   53.6540   72.2950 O.2   276  TRP276     -0.2867
    125  CB        -3.5830   56.6630   72.2310 C.3   276  TRP276      0.0550
    126  CG        -3.3700   57.9050   71.4830 C.ar  276  TRP276      0.0003
    127  CD1       -4.2190   58.9940   71.4190 C.ar  276  TRP276      0.0946
    128  CD2       -2.2620   58.2080   70.6190 C.ar  276  TRP276      0.0152
    129  NE1       -3.6980   59.9410   70.5690 N.ar  276  TRP276     -0.2442
    130  CE2       -2.5030   59.4830   70.0630 C.ar  276  TRP276      0.0810
    131  CE3       -1.1040   57.5270   70.2630 C.ar  276  TRP276      0.0012
    132  CZ2       -1.6080   60.0970   69.1500 C.ar  276  TRP276      0.0191
    133  CZ3       -0.2060   58.1340   69.3440 C.ar  276  TRP276      0.0001
    134  CH2       -0.4730   59.4060   68.8020 C.ar  276  TRP276      0.0015
    135  N         -2.1990   50.6520   70.2950 N.3   279  LEU279     -0.1245
    136  CA        -0.7740   50.4480   69.9740 C.3   279  LEU279      0.1561
    137  C         -0.4150   49.1220   70.5920 C.2   279  LEU279      0.2260
    138  O         -0.8330   48.8320   71.7010 O.2   279  LEU279     -0.2867
    139  CB         0.1290   51.5610   70.5810 C.3   279  LEU279      0.0270
    140  CG        -0.0490   52.8700   69.7350 C.3   279  LEU279      0.0019
    141  CD1        0.7410   53.9890   70.3550 C.3   279  LEU279      0.0001
    142  CD2        0.3950   52.6240   68.2640 C.3   279  LEU279      0.0001
    143  N          5.2190   52.8580   73.7810 N.3   283  SER283     -0.1202
    144  CA         6.1810   53.3250   72.7890 C.3   283  SER283      0.2020
    145  C          6.1170   54.8070   72.5370 C.2   283  SER283      0.2619
    146  O          5.2380   55.4940   73.0040 O.2   283  SER283     -0.2717
    147  CB         5.8790   52.6320   71.4310 C.3   283  SER283      0.2103
    148  OG         4.6050   53.0970   70.9480 O.3   283  SER283     -0.2182
    149  N          7.0450   55.2600   71.7210 N.am  284  ILE284     -0.1965
    150  CA         7.0990   56.6410   71.3200 C.3   284  ILE284      0.1727
    151  C          7.3280   56.6010   69.8170 C.2   284  ILE284      0.2616
    152  O          7.9160   55.6470   69.2940 O.2   284  ILE284     -0.2715
    153  CB         8.2050   57.2570   72.1980 C.3   284  ILE284      0.0290
    154  CG1        7.5770   58.3460   72.9670 C.3   284  ILE284      0.0022
    155  CG2        9.5160   57.4420   71.5790 C.3   284  ILE284      0.0023
    156  CD1        7.5950   57.8540   74.2820 C.3   284  ILE284      0.0001
    157  N          6.8510   57.6250   69.1290 N.am  285  PHE285     -0.1960
    158  CA         6.9840   57.7300   67.6900 C.3   285  PHE285      0.1771
    159  C          6.3210   56.5270   66.9690 C.2   285  PHE285      0.2619
    160  O          6.8770   55.9660   66.0100 O.2   285  PHE285     -0.2715
    161  CB         8.4400   57.8500   67.2520 C.3   285  PHE285      0.0574
    162  CG         8.6540   58.8970   66.1590 C.ar  285  PHE285     -0.0200
    163  CD1        7.8770   58.8740   64.9780 C.ar  285  PHE285     -0.0042
    164  CD2        9.6630   59.8640   66.2730 C.ar  285  PHE285     -0.0042
    165  CE1        8.0900   59.7460   63.9530 C.ar  285  PHE285     -0.0003
    166  CE2        9.8930   60.7630   65.2190 C.ar  285  PHE285     -0.0003
    167  CZ         9.1080   60.7020   64.0580 C.ar  285  PHE285     -0.0000
    168  N          5.1500   56.1480   67.4550 N.am  286  ARG286     -0.1963
    169  CA         4.3370   55.0480   66.8470 C.3   286  ARG286      0.1729
    170  C          2.8630   55.5670   66.8850 C.2   286  ARG286      0.2616
    171  O          2.3900   56.1530   67.8890 O.2   286  ARG286     -0.2715
    172  CB         4.4710   53.7330   67.6360 C.3   286  ARG286      0.0348
    173  CG         5.8080   53.0540   67.5180 C.3   286  ARG286      0.0492
    174  CD         6.1810   52.7150   66.0790 C.3   286  ARG286      0.2205
    175  NE         7.4720   52.0170   66.0150 N.pl3 286  ARG286     -0.0865
    176  CZ         8.6780   52.5910   65.8940 C.cat 286  ARG286      0.5346
    177  NH1        8.7930   53.9150   65.8180 N.pl3 286  ARG286      0.1354
    178  NH2        9.7880   51.8320   65.8180 N.pl3 286  ARG286      0.1354
    179  N          2.1910   55.3960   65.7540 N.am  287  PHE287     -0.1974
    180  CA         0.8320   55.8750   65.5510 C.3   287  PHE287      0.1639
    181  C         -0.0910   54.6810   65.1920 C.2   287  PHE287      0.2290
    182  O          0.2880   53.7400   64.5090 O.2   287  PHE287     -0.2864
    183  CB         0.8910   56.9720   64.4600 C.3   287  PHE287      0.0560
    184  CG         2.0490   57.9620   64.6710 C.ar  287  PHE287     -0.0200
    185  CD1        2.1350   58.7130   65.8250 C.ar  287  PHE287     -0.0042
    186  CD2        3.0780   58.0520   63.7530 C.ar  287  PHE287     -0.0042
    187  CE1        3.2690   59.5710   66.0800 C.ar  287  PHE287     -0.0003
    188  CE2        4.2010   58.8870   63.9770 C.ar  287  PHE287     -0.0003
    189  CZ         4.2980   59.6490   65.1450 C.ar  287  PHE287     -0.0000
    190  N         10.5980   66.4150   70.0170 N.3   327  PHE327     -0.1227
    191  CA         9.1550   66.5970   70.1410 C.3   327  PHE327      0.1736
    192  C          8.5270   65.3500   70.7710 C.2   327  PHE327      0.2595
    193  O          7.6510   65.4360   71.6590 O.2   327  PHE327     -0.2718
    194  CB         8.4970   66.7800   68.7540 C.3   327  PHE327      0.0547
    195  CG         7.4150   67.8400   68.6970 C.ar  327  PHE327     -0.0202
    196  CD1        6.5460   68.0240   69.7420 C.ar  327  PHE327     -0.0042
    197  CD2        7.3000   68.6670   67.5660 C.ar  327  PHE327     -0.0042
    198  CE1        5.5800   69.0270   69.6860 C.ar  327  PHE327     -0.0003
    199  CE2        6.3370   69.6580   67.4950 C.ar  327  PHE327     -0.0003
    200  CZ         5.4700   69.8550   68.5540 C.ar  327  PHE327     -0.0000
    201  N          8.9920   64.1970   70.3160 N.am  328  PHE328     -0.1976
    202  CA         8.4040   62.9700   70.7910 C.3   328  PHE328      0.1639
    203  C          8.8420   62.6100   72.1910 C.2   328  PHE328      0.2290
    204  O          8.0360   62.0580   72.9370 O.2   328  PHE328     -0.2864
    205  CB         8.6990   61.8500   69.7830 C.3   328  PHE328      0.0560
    206  CG         8.1750   62.1620   68.4200 C.ar  328  PHE328     -0.0200
    207  CD1        8.9450   62.9300   67.5330 C.ar  328  PHE328     -0.0042
    208  CD2        6.8610   61.8090   68.0750 C.ar  328  PHE328     -0.0042
    209  CE1        8.4040   63.3550   66.2910 C.ar  328  PHE328     -0.0003
    210  CE2        6.2980   62.2180   66.8580 C.ar  328  PHE328     -0.0003
    211  CZ         7.0590   62.9850   65.9660 C.ar  328  PHE328     -0.0000
    212  N          6.8710   64.8110   74.7160 N.3   331  TYR331     -0.1227
    213  CA         5.4920   64.3650   74.9420 C.3   331  TYR331      0.1736
    214  C          5.3790   62.9590   75.4450 C.2   331  TYR331      0.2596
    215  O          4.3760   62.6220   76.0510 O.2   331  TYR331     -0.2718
    216  CB         4.6420   64.4600   73.6560 C.3   331  TYR331      0.0548
    217  CG         4.1030   65.8380   73.3650 C.ar  331  TYR331     -0.0200
    218  CD1        4.9700   66.9110   73.1130 C.ar  331  TYR331     -0.0009
    219  CD2        2.7140   66.0770   73.3470 C.ar  331  TYR331     -0.0009
    220  CE1        4.4640   68.1940   72.8560 C.ar  331  TYR331      0.0417
    221  CE2        2.2120   67.3590   73.0810 C.ar  331  TYR331      0.0417
    222  CZ         3.0720   68.4110   72.8320 C.ar  331  TYR331      0.1957
    223  OH         2.5680   69.6580   72.4770 O.3   331  TYR331     -0.2866
    224  N          6.3620   62.1120   75.2270 N.am  332  GLY332     -0.1957
    225  CA         6.1040   60.7640   75.6830 C.3   332  GLY332      0.1869
    226  C          7.0850   59.9640   76.5080 C.2   332  GLY332      0.2309
    227  O          6.7670   58.8040   76.7490 O.2   332  GLY332     -0.2863
    228  N         11.5360   68.7390   64.9900 N.3   437  HIS437     -0.1226
    229  CA        10.7820   68.1090   63.9360 C.3   437  HIS437      0.1752
    230  C          9.6950   69.0980   63.5270 C.2   437  HIS437      0.2596
    231  O          8.8570   69.5020   64.3600 O.2   437  HIS437     -0.2718
    232  CB        10.1220   66.8610   64.5120 C.3   437  HIS437      0.0759
    233  CG         9.4500   65.9950   63.4950 C.ar  437  HIS437      0.0818
    234  ND1       10.1410   65.4180   62.4420 N.ar  437  HIS437     -0.2268
    235  CD2        8.1690   65.5410   63.4130 C.ar  437  HIS437      0.1154
    236  CE1        9.3130   64.6330   61.7570 C.ar  437  HIS437      0.1986
    237  NE2        8.1110   64.6950   62.3190 N.ar  437  HIS437     -0.2212
    238  N          9.7110   69.5060   62.2700 N.am  438  GLY438     -0.1957
    239  CA         8.6780   70.3800   61.7780 C.3   438  GLY438      0.1869
    240  C          9.0430   71.8450   61.6780 C.2   438  GLY438      0.2309
    241  O          8.3470   72.6060   60.9950 O.2   438  GLY438     -0.2863
    242  N          9.5760   73.9670   58.3010 N.3   441  ILE441     -0.1245
    243  CA         8.4290   74.2880   57.4780 C.3   441  ILE441      0.1561
    244  C          8.2060   75.8070   57.3490 C.2   441  ILE441      0.2260
    245  O          8.0320   76.3390   56.2240 O.2   441  ILE441     -0.2867
    246  CB         7.1130   73.6010   58.0200 C.3   441  ILE441      0.0252
    247  CG1        7.1910   72.0700   57.8500 C.3   441  ILE441      0.0019
    248  CG2        5.8750   74.1560   57.2280 C.3   441  ILE441      0.0019
    249  CD1        6.1330   71.3330   58.6630 C.3   441  ILE441      0.0001
@<TRIPOS>BOND
     1    97    96    2
     2    44    45    1
     3   106   107    1
     4    96    95    1
     5    45    46    1
     6    45    48    1
     7    53    51   ar
     8    53    54   ar
     9    98    95    1
    10    98    99    1
    11    51    49   ar
    12    47    46    2
    13    95    94    1
    14   107   110    1
    15   107   108    1
    16    55    54    1
    17   245   244    2
    18    54    52   ar
    19    46    56   am
    20    49    48    1
    21    49    50   ar
    22    99   100   ar
    23    99   101   ar
    24   110   111    1
    25   118   117    2
    26   108   109    2
    27   108   115   am
    28   100   102   ar
    29    52    50   ar
    30   101   103   ar
    31   248   246    1
    32   244   243    1
    33    56    57    1
    34   243   246    1
    35   243   242    1
    36   115   116    1
    37   102   104   ar
    38   117   116    1
    39   103   104   ar
    40   111   112    1
    41   247   246    1
    42   247   249    1
    43    89    88    2
    44   104   105    1
    45    57    58    1
    46   116   119    1
    47    86    87    1
    48    88    87    1
    49   112   113   ar
    50   112   114   ar
    51    58    59    2
    52    58    60   am
    53    87    90    1
    54    85    84    2
    55    84    83    1
    56   119   120    1
    57    90    91    1
    58    83    82    1
    59    60    61    1
    60    91    92    1
    61    91    93    1
    62    79    78    2
    63   241   240    2
    64    82    78   am
    65    78    77    1
    66    61    62    1
    67    42    43   ar
    68    42    40   ar
    69   240   239    1
    70   236   237   ar
    71   236   234   ar
    72   239   238    1
    73    64    65    1
    74    62    63    2
    75    43    41   ar
    76   238   230   am
    77   237   235   ar
    78    76    77    1
    79    76    66   am
    80   234   233   ar
    81    77    80    1
    82    40    37   ar
    83    65    66    1
    84    65    68    1
    85    66    67    2
    86   235   233   ar
    87    41    39   ar
    88   233   232    1
    89   230   229    1
    90   230   231    2
    91   186   188   ar
    92   186   184   ar
    93    81    80    1
    94   229   232    1
    95   229   228    1
    96   165   167   ar
    97   165   163   ar
    98   188   189   ar
    99    37    39   ar
   100    37    35   ar
   101   167   166   ar
   102    33    32    2
   103    68    69    1
   104    39    38   ar
   105   183   184    1
   106   183   180    1
   107   182   181    2
   108   184   185   ar
   109    31    32    1
   110    31    34    1
   111    31    30    1
   112    71    69   ar
   113    71    73   ar
   114   163   162   ar
   115    69    70   ar
   116   189   187   ar
   117    35    34    1
   118    35    36   ar
   119   181   180    1
   120   166   164   ar
   121   180   179    1
   122    73    74   ar
   123    38    36   ar
   124   179   170   am
   125   177   176    1
   126   178   176    1
   127   185   187   ar
   128    70    72   ar
   129   176   175    2
   130   211   209   ar
   131   211   210   ar
   132   160   159    2
   133   175   174    1
   134   174   173    1
   135   162   164   ar
   136   162   161    1
   137   209   207   ar
   138    74    72   ar
   139    74    75    1
   140     1     2    1
   141   169   170    1
   142   169   168    1
   143   169   172    1
   144   210   208   ar
   145   170   171    2
   146   159   168   am
   147   159   158    1
   148     4     3    2
   149   161   158    1
   150   199   197   ar
   151   199   200   ar
   152   173   172    1
   153   207   206   ar
   154   197   195   ar
   155   158   157    1
   156     2     3    1
   157     2     5    1
   158   208   206   ar
   159   142   140    1
   160     5     6    1
   161   206   205    1
   162   200   198   ar
   163   195   194    1
   164   195   196   ar
   165   194   191    1
   166   134   132   ar
   167   134   133   ar
   168   157   151   am
   169   132   130   ar
   170   152   151    2
   171   133   131   ar
   172   198   196   ar
   173     6     8   ar
   174     6     7   ar
   175   140   141    1
   176   140   139    1
   177   205   202    1
   178   151   150    1
   179     8    10   ar
   180   136   135    1
   181   136   139    1
   182   136   137    1
   183   190   191    1
   184   130   129   ar
   185   130   128   ar
   186   191   192    1
   187   131   128   ar
   188    13    14    1
   189   201   192   am
   190   201   202    1
   191   129   127   ar
   192   137   138    2
   193   128   126   ar
   194    17    14    1
   195    17    18    1
   196   192   193    2
   197   202   203    1
   198   121   122    1
   199     7     9   ar
   200   148   147    1
   201    10    11   ar
   202    20    18   ar
   203   150   149    1
   204   150   153    1
   205   122   123    1
   206   122   125    1
   207    14    15    1
   208   127   126   ar
   209   147   144    1
   210   126   125    1
   211   155   153    1
   212   149   145   am
   213    18    19   ar
   214   123   124    2
   215     9    11   ar
   216    16    15    2
   217   203   204    2
   218   153   154    1
   219    11    12    1
   220   223   222    1
   221   145   144    1
   222   145   146    2
   223   144   143    1
   224   222   220   ar
   225   222   221   ar
   226   220   218   ar
   227   154   156    1
   228   221   219   ar
   229   218   217   ar
   230   219   217   ar
   231   217   216    1
   232   216   213    1
   233   212   213    1
   234   213   214    1
   235   224   214   am
   236   224   225    1
   237   214   215    2
   238    21    22    1
   239   225   226    1
   240    25    26    1
   241    25    22    1
   242    26    27    1
   243   226   227    2
   244    22    23    1
   245    23    24    2
   246    27    28    2
   247    27    29   am
