@<TRIPOS>MOLECULE
tmp/1h23A00.pdb
 244 243 0 0 0
SMALL
GASTEIGER

@<TRIPOS>ATOM
      1  N         -7.2910   64.1000   66.8020 N.3    67  TYR67      -0.1241
      2  CA        -6.8310   64.3380   68.1670 C.3    67  TYR67       0.1605
      3  C         -6.3770   65.8070   68.2510 C.2    67  TYR67       0.2264
      4  O         -5.7310   66.3390   67.3070 O.2    67  TYR67      -0.2867
      5  CB        -5.6010   63.4990   68.4560 C.3    67  TYR67       0.0534
      6  CG        -4.9660   63.7520   69.8080 C.ar   67  TYR67      -0.0201
      7  CD1       -5.4530   63.1300   70.9580 C.ar   67  TYR67      -0.0009
      8  CD2       -3.8630   64.6140   69.9370 C.ar   67  TYR67      -0.0009
      9  CE1       -4.8560   63.3570   72.2160 C.ar   67  TYR67       0.0417
     10  CE2       -3.2530   64.8470   71.2160 C.ar   67  TYR67       0.0417
     11  CZ        -3.7570   64.2260   72.3260 C.ar   67  TYR67       0.1957
     12  OH        -3.2190   64.5030   73.5680 O.3    67  TYR67      -0.2866
     13  N         -4.1730   68.5620   70.4850 N.3    69  ASP69      -0.1239
     14  CA        -3.1810   68.6540   71.5250 C.3    69  ASP69       0.1674
     15  C         -3.6160   69.6710   72.5800 C.2    69  ASP69       0.2266
     16  O         -3.8260   70.8390   72.2750 O.2    69  ASP69      -0.2867
     17  CB        -1.8330   69.0950   70.9000 C.3    69  ASP69       0.1410
     18  CG        -0.7010   69.2150   71.9250 C.2    69  ASP69       0.3668
     19  OD1       -0.9230   68.9140   73.1260 O.co2  69  ASP69      -0.2456
     20  OD2        0.4110   69.5910   71.5080 O.co2  69  ASP69      -0.2456
     21  N         -0.0840   73.7610   65.6970 N.3    81  TRP81      -0.1241
     22  CA        -0.2740   72.5200   64.9340 C.3    81  TRP81       0.1605
     23  C         -1.7010   72.0030   65.0680 C.2    81  TRP81       0.2264
     24  O         -2.0960   71.0540   64.3920 O.2    81  TRP81      -0.2867
     25  CB         0.6980   71.4200   65.4180 C.3    81  TRP81       0.0550
     26  CG         2.1690   71.8700   65.3420 C.ar   81  TRP81       0.0003
     27  CD1        2.9870   72.1860   66.3820 C.ar   81  TRP81       0.0946
     28  CD2        2.9320   72.0940   64.1510 C.ar   81  TRP81       0.0152
     29  NE1        4.2340   72.5930   65.9200 N.ar   81  TRP81      -0.2442
     30  CE2        4.2210   72.5500   64.5520 C.ar   81  TRP81       0.0810
     31  CE3        2.6510   71.9650   62.7810 C.ar   81  TRP81       0.0012
     32  CZ2        5.2310   72.8710   63.6230 C.ar   81  TRP81       0.0191
     33  CZ3        3.6520   72.2940   61.8550 C.ar   81  TRP81       0.0001
     34  CH2        4.9240   72.7370   62.2830 C.ar   81  TRP81       0.0015
     35  N          0.1010   67.8190   54.3910 N.3   113  TYR113     -0.1227
     36  CA         0.3760   67.9240   55.8120 C.3   113  TYR113      0.1736
     37  C          0.7660   66.5910   56.4430 C.2   113  TYR113      0.2596
     38  O          0.5820   65.5140   55.8790 O.2   113  TYR113     -0.2718
     39  CB        -0.7770   68.6250   56.5820 C.3   113  TYR113      0.0548
     40  CG        -2.1490   67.9900   56.5130 C.ar  113  TYR113     -0.0200
     41  CD1       -2.4140   66.7520   57.0890 C.ar  113  TYR113     -0.0009
     42  CD2       -3.2010   68.6730   55.9100 C.ar  113  TYR113     -0.0009
     43  CE1       -3.7020   66.2200   57.0580 C.ar  113  TYR113      0.0417
     44  CE2       -4.4680   68.1670   55.8820 C.ar  113  TYR113      0.0417
     45  CZ        -4.7280   66.9480   56.4450 C.ar  113  TYR113      0.1957
     46  OH        -6.0420   66.4940   56.3850 O.3   113  TYR113     -0.2866
     47  N          1.3580   66.6510   57.6130 N.am  114  GLY114     -0.1942
     48  CA         1.8230   65.4020   58.1550 C.3   114  GLY114      0.2014
     49  C          2.0280   65.1110   59.6180 C.2   114  GLY114      0.2639
     50  O          3.1160   64.6490   60.0050 O.2   114  GLY114     -0.2714
     51  N          1.0000   65.3190   60.4300 N.am  115  GLY115     -0.1939
     52  CA         1.1500   64.9800   61.8320 C.3   115  GLY115      0.2014
     53  C          0.9910   63.4740   62.1020 C.2   115  GLY115      0.2639
     54  O         -0.0750   63.0550   62.5770 O.2   115  GLY115     -0.2714
     55  N          2.0120   62.6580   61.7980 N.am  116  GLY116     -0.1954
     56  CA         1.9420   61.2260   62.1010 C.3   116  GLY116      0.1869
     57  C          0.7410   60.3920   61.6240 C.2   116  GLY116      0.2309
     58  O          0.4640   59.3290   62.1810 O.2   116  GLY116     -0.2863
     59  N         -2.1730   60.9170   62.1250 N.3   118  TYR118     -0.1227
     60  CA        -3.3210   61.0390   63.0340 C.3   118  TYR118      0.1736
     61  C         -3.7900   62.4930   63.1900 C.2   118  TYR118      0.2596
     62  O         -4.8100   62.7360   63.8600 O.2   118  TYR118     -0.2718
     63  CB        -3.0240   60.4650   64.4400 C.3   118  TYR118      0.0548
     64  CG        -2.0500   61.2940   65.2660 C.ar  118  TYR118     -0.0200
     65  CD1       -2.4980   62.3630   66.0270 C.ar  118  TYR118     -0.0009
     66  CD2       -0.6660   61.0650   65.1920 C.ar  118  TYR118     -0.0009
     67  CE1       -1.5870   63.2320   66.7120 C.ar  118  TYR118      0.0417
     68  CE2        0.2430   61.8980   65.8680 C.ar  118  TYR118      0.0417
     69  CZ        -0.2420   62.9930   66.6310 C.ar  118  TYR118      0.1957
     70  OH         0.6200   63.8460   67.2990 O.3   118  TYR118     -0.2866
     71  N         -3.0520   63.4600   62.6240 N.am  119  SER119     -0.1938
     72  CA        -3.4680   64.8540   62.7400 C.3   119  SER119      0.2055
     73  C         -2.9150   65.6330   61.5770 C.2   119  SER119      0.2643
     74  O         -2.1360   65.0880   60.7570 O.2   119  SER119     -0.2714
     75  CB        -3.0120   65.4810   64.0860 C.3   119  SER119      0.2130
     76  OG        -1.6190   65.7500   64.0630 O.3   119  SER119     -0.2179
     77  N         -3.3300   66.9020   61.5040 N.am  120  GLY120     -0.1954
     78  CA        -2.9210   67.7750   60.4000 C.3   120  GLY120      0.1869
     79  C         -4.1190   68.5300   59.7850 C.2   120  GLY120      0.2309
     80  O         -5.2420   68.0160   59.7740 O.2   120  GLY120     -0.2863
     81  N         -3.4330   75.6140   58.6710 N.3   124  LEU124     -0.1245
     82  CA        -2.6040   76.2110   59.7180 C.3   124  LEU124      0.1561
     83  C         -1.9250   77.5170   59.3110 C.2   124  LEU124      0.2260
     84  O         -1.5830   77.7050   58.1560 O.2   124  LEU124     -0.2867
     85  CB        -1.5140   75.2310   60.1220 C.3   124  LEU124      0.0270
     86  CG        -2.0030   73.8380   60.5570 C.3   124  LEU124      0.0019
     87  CD1       -0.7590   72.9730   60.9350 C.3   124  LEU124      0.0001
     88  CD2       -2.9710   73.9620   61.7300 C.3   124  LEU124      0.0001
     89  N          1.1280   77.1170   57.3840 N.3   127  TYR127     -0.1241
     90  CA         0.9960   76.5930   55.9990 C.3   127  TYR127      0.1605
     91  C          0.3950   77.6270   55.0110 C.2   127  TYR127      0.2264
     92  O         -0.0030   77.2710   53.8900 O.2   127  TYR127     -0.2867
     93  CB         0.1100   75.3160   55.9430 C.3   127  TYR127      0.0534
     94  CG         0.6040   74.1110   56.7250 C.ar  127  TYR127     -0.0201
     95  CD1        1.9630   73.9780   57.0760 C.ar  127  TYR127     -0.0009
     96  CD2       -0.2970   73.0910   57.1150 C.ar  127  TYR127     -0.0009
     97  CE1        2.4120   72.8600   57.8060 C.ar  127  TYR127      0.0417
     98  CE2        0.1310   71.9700   57.8390 C.ar  127  TYR127      0.0417
     99  CZ         1.4820   71.8570   58.1760 C.ar  127  TYR127      0.1957
    100  OH         1.9350   70.7310   58.8130 O.3   127  TYR127     -0.2866
    101  N          5.9960   67.2280   54.9240 N.3   196  GLU196     -0.1231
    102  CA         6.8970   67.0180   56.0410 C.3   196  GLU196      0.1699
    103  C          6.3470   65.9400   56.9620 C.2   196  GLU196      0.2592
    104  O          5.1420   65.7830   57.0680 O.2   196  GLU196     -0.2718
    105  CB         7.1040   68.3400   56.8140 C.3   196  GLU196      0.0402
    106  CG         8.1390   68.2660   57.9250 C.3   196  GLU196      0.1161
    107  CD         7.5170   67.9250   59.2810 C.2   196  GLU196      0.3649
    108  OE1        6.2750   67.8150   59.3530 O.co2 196  GLU196     -0.2457
    109  OE2        8.2510   67.7670   60.2870 O.co2 196  GLU196     -0.2457
    110  N          7.2480   65.2260   57.6440 N.am  197  SER197     -0.1952
    111  CA         6.8960   64.1350   58.5800 C.3   197  SER197      0.1924
    112  C          5.9990   63.0950   57.8590 C.2   197  SER197      0.2314
    113  O          6.4120   62.5630   56.8540 O.2   197  SER197     -0.2863
    114  CB         6.2100   64.7050   59.8410 C.3   197  SER197      0.2116
    115  OG         6.2230   63.7260   60.8890 O.3   197  SER197     -0.2180
    116  N         -5.3750   56.0630   71.0430 N.3   276  TRP276     -0.1241
    117  CA        -4.0700   55.7140   71.5640 C.3   276  TRP276      0.1605
    118  C         -4.0890   54.4080   72.3460 C.2   276  TRP276      0.2264
    119  O         -3.0320   53.8720   72.6430 O.2   276  TRP276     -0.2867
    120  CB        -3.5200   56.8510   72.4360 C.3   276  TRP276      0.0550
    121  CG        -3.3220   58.1200   71.6670 C.ar  276  TRP276      0.0003
    122  CD1       -4.2090   59.1790   71.5610 C.ar  276  TRP276      0.0946
    123  CD2       -2.2380   58.4190   70.7690 C.ar  276  TRP276      0.0152
    124  NE1       -3.7350   60.0910   70.6460 N.ar  276  TRP276     -0.2442
    125  CE2       -2.5350   59.6450   70.1410 C.ar  276  TRP276      0.0810
    126  CE3       -1.0690   57.7590   70.4230 C.ar  276  TRP276      0.0012
    127  CZ2       -1.6790   60.2330   69.1850 C.ar  276  TRP276      0.0191
    128  CZ3       -0.2200   58.3380   69.4680 C.ar  276  TRP276      0.0001
    129  CH2       -0.5440   59.5590   68.8600 C.ar  276  TRP276      0.0015
    130  N         -2.3380   50.8740   70.4820 N.3   279  LEU279     -0.1245
    131  CA        -0.9190   50.6360   70.1540 C.3   279  LEU279      0.1561
    132  C         -0.5520   49.2970   70.7820 C.2   279  LEU279      0.2260
    133  O         -1.0060   48.9650   71.8850 O.2   279  LEU279     -0.2867
    134  CB        -0.0130   51.7140   70.7570 C.3   279  LEU279      0.0270
    135  CG        -0.1400   53.0030   69.9330 C.3   279  LEU279      0.0019
    136  CD1        0.6490   54.0960   70.5580 C.3   279  LEU279      0.0001
    137  CD2        0.2910   52.7570   68.4930 C.3   279  LEU279      0.0001
    138  N          5.2150   52.8920   73.8920 N.3   283  SER283     -0.1202
    139  CA         6.1770   53.3640   72.9270 C.3   283  SER283      0.2020
    140  C          6.0870   54.8390   72.7080 C.2   283  SER283      0.2619
    141  O          5.1870   55.5030   73.1870 O.2   283  SER283     -0.2717
    142  CB         5.9110   52.6890   71.5820 C.3   283  SER283      0.2103
    143  OG         4.6330   53.0970   71.1400 O.3   283  SER283     -0.2182
    144  N          7.0320   55.3180   71.9320 N.am  284  ILE284     -0.1965
    145  CA         7.1340   56.7120   71.5390 C.3   284  ILE284      0.1727
    146  C          7.3360   56.7160   70.0190 C.2   284  ILE284      0.2616
    147  O          7.9290   55.7650   69.4520 O.2   284  ILE284     -0.2715
    148  CB         8.2680   57.3480   72.4070 C.3   284  ILE284      0.0290
    149  CG1        7.6790   58.5580   73.0290 C.3   284  ILE284      0.0022
    150  CG2        9.6000   57.5090   71.7900 C.3   284  ILE284      0.0023
    151  CD1        6.9210   58.1080   74.1520 C.3   284  ILE284      0.0001
    152  N          6.7690   57.7180   69.3520 N.am  285  PHE285     -0.1960
    153  CA         6.8900   57.8410   67.8890 C.3   285  PHE285      0.1771
    154  C          6.2210   56.6730   67.1350 C.2   285  PHE285      0.2619
    155  O          6.7490   56.1370   66.1510 O.2   285  PHE285     -0.2715
    156  CB         8.3560   57.9370   67.4590 C.3   285  PHE285      0.0574
    157  CG         8.5930   58.9390   66.3570 C.ar  285  PHE285     -0.0200
    158  CD1        7.8230   58.9280   65.2130 C.ar  285  PHE285     -0.0042
    159  CD2        9.6020   59.8890   66.4580 C.ar  285  PHE285     -0.0042
    160  CE1        8.0540   59.8380   64.1780 C.ar  285  PHE285     -0.0003
    161  CE2        9.8400   60.8080   65.4160 C.ar  285  PHE285     -0.0003
    162  CZ         9.0620   60.7780   64.2750 C.ar  285  PHE285     -0.0000
    163  N          5.0650   56.2570   67.6350 N.am  286  ARG286     -0.1963
    164  CA         4.2940   55.1700   67.0150 C.3   286  ARG286      0.1729
    165  C          2.8270   55.6770   67.0570 C.2   286  ARG286      0.2616
    166  O          2.3470   56.1830   68.0830 O.2   286  ARG286     -0.2715
    167  CB         4.4650   53.8330   67.7830 C.3   286  ARG286      0.0348
    168  CG         5.8190   53.2180   67.6770 C.3   286  ARG286      0.0492
    169  CD         6.1570   52.8240   66.2430 C.3   286  ARG286      0.2205
    170  NE         7.4470   52.1280   66.1920 N.pl3 286  ARG286     -0.0865
    171  CZ         8.6260   52.7350   66.0450 C.cat 286  ARG286      0.5346
    172  NH1        8.6840   54.0450   65.9380 N.pl3 286  ARG286      0.1354
    173  NH2        9.7510   52.0310   65.9630 N.pl3 286  ARG286      0.1354
    174  N          2.1510   55.5530   65.9250 N.am  287  PHE287     -0.1974
    175  CA         0.7950   56.0440   65.7800 C.3   287  PHE287      0.1639
    176  C         -0.1460   54.9010   65.4400 C.2   287  PHE287      0.2290
    177  O          0.2300   53.9390   64.7680 O.2   287  PHE287     -0.2864
    178  CB         0.8240   57.1370   64.7060 C.3   287  PHE287      0.0560
    179  CG         1.9790   58.0960   64.8950 C.ar  287  PHE287     -0.0200
    180  CD1        2.0860   58.8340   66.0590 C.ar  287  PHE287     -0.0042
    181  CD2        3.0130   58.1770   63.9450 C.ar  287  PHE287     -0.0042
    182  CE1        3.2420   59.6500   66.2880 C.ar  287  PHE287     -0.0003
    183  CE2        4.1350   58.9730   64.1580 C.ar  287  PHE287     -0.0003
    184  CZ         4.2570   59.7140   65.3290 C.ar  287  PHE287     -0.0000
    185  N         10.7030   66.4710   70.1880 N.3   327  PHE327     -0.1227
    186  CA         9.2790   66.6960   70.2980 C.3   327  PHE327      0.1736
    187  C          8.6320   65.4560   70.9530 C.2   327  PHE327      0.2595
    188  O          7.7890   65.5610   71.8670 O.2   327  PHE327     -0.2718
    189  CB         8.7130   66.8960   68.8910 C.3   327  PHE327      0.0547
    190  CG         7.6500   67.9730   68.7870 C.ar  327  PHE327     -0.0202
    191  CD1        6.7810   68.2230   69.8410 C.ar  327  PHE327     -0.0042
    192  CD2        7.5490   68.7460   67.6280 C.ar  327  PHE327     -0.0042
    193  CE1        5.8220   69.2370   69.7540 C.ar  327  PHE327     -0.0003
    194  CE2        6.6040   69.7590   67.5210 C.ar  327  PHE327     -0.0003
    195  CZ         5.7340   70.0180   68.5740 C.ar  327  PHE327     -0.0000
    196  N          9.0760   64.2780   70.5230 N.am  328  PHE328     -0.1976
    197  CA         8.4770   63.0630   71.0250 C.3   328  PHE328      0.1639
    198  C          8.8850   62.6740   72.4060 C.2   328  PHE328      0.2290
    199  O          8.0850   62.0470   73.1220 O.2   328  PHE328     -0.2864
    200  CB         8.7150   61.9200   70.0310 C.3   328  PHE328      0.0560
    201  CG         8.2400   62.2650   68.6330 C.ar  328  PHE328     -0.0200
    202  CD1        9.0550   63.0230   67.7800 C.ar  328  PHE328     -0.0042
    203  CD2        6.9500   61.9420   68.2180 C.ar  328  PHE328     -0.0042
    204  CE1        8.5850   63.4580   66.5220 C.ar  328  PHE328     -0.0003
    205  CE2        6.4710   62.3670   66.9760 C.ar  328  PHE328     -0.0003
    206  CZ         7.2800   63.1180   66.1290 C.ar  328  PHE328     -0.0000
    207  N          6.9060   64.9230   74.9740 N.3   331  TYR331     -0.1227
    208  CA         5.5610   64.4330   75.1470 C.3   331  TYR331      0.1736
    209  C          5.4880   63.0170   75.6560 C.2   331  TYR331      0.2596
    210  O          4.5420   62.6880   76.3280 O.2   331  TYR331     -0.2718
    211  CB         4.7400   64.5280   73.8390 C.3   331  TYR331      0.0548
    212  CG         4.1810   65.9090   73.5470 C.ar  331  TYR331     -0.0200
    213  CD1        5.0310   66.9500   73.1900 C.ar  331  TYR331     -0.0009
    214  CD2        2.7950   66.1720   73.6070 C.ar  331  TYR331     -0.0009
    215  CE1        4.5290   68.2170   72.8970 C.ar  331  TYR331      0.0417
    216  CE2        2.2850   67.4370   73.3130 C.ar  331  TYR331      0.0417
    217  CZ         3.1710   68.4500   72.9550 C.ar  331  TYR331      0.1957
    218  OH         2.7400   69.7020   72.5940 O.3   331  TYR331     -0.2866
    219  N          6.4550   62.1660   75.4130 N.am  332  GLY332     -0.1957
    220  CA         6.1730   60.8460   75.9270 C.3   332  GLY332      0.1869
    221  C          7.1290   60.0230   76.7600 C.2   332  GLY332      0.2309
    222  O          6.8300   58.8560   77.0020 O.2   332  GLY332     -0.2863
    223  N         11.6020   68.8720   65.1790 N.3   437  HIS437     -0.1226
    224  CA        10.8770   68.2310   64.1200 C.3   437  HIS437      0.1752
    225  C          9.7720   69.2010   63.7020 C.2   437  HIS437      0.2596
    226  O          8.9450   69.5860   64.5200 O.2   437  HIS437     -0.2718
    227  CB        10.2560   66.9450   64.6730 C.3   437  HIS437      0.0759
    228  CG         9.5520   66.1050   63.6570 C.ar  437  HIS437      0.0818
    229  ND1       10.2060   65.5270   62.5970 N.ar  437  HIS437     -0.2268
    230  CD2        8.2630   65.6810   63.5850 C.ar  437  HIS437      0.1154
    231  CE1        9.3580   64.7700   61.9170 C.ar  437  HIS437      0.1986
    232  NE2        8.1650   64.8480   62.4950 N.ar  437  HIS437     -0.2212
    233  N          9.7840   69.6020   62.4420 N.am  438  GLY438     -0.1957
    234  CA         8.7590   70.4930   61.9270 C.3   438  GLY438      0.1869
    235  C          9.1040   71.9680   61.8250 C.2   438  GLY438      0.2309
    236  O          8.3880   72.7610   61.1760 O.2   438  GLY438     -0.2863
    237  N          9.6800   74.0450   58.4350 N.3   441  ILE441     -0.1245
    238  CA         8.4970   74.3870   57.6410 C.3   441  ILE441      0.1561
    239  C          8.2760   75.9080   57.5130 C.2   441  ILE441      0.2260
    240  O          8.0470   76.4210   56.4080 O.2   441  ILE441     -0.2867
    241  CB         7.1920   73.7270   58.2400 C.3   441  ILE441      0.0252
    242  CG1        7.3030   72.1900   58.1620 C.3   441  ILE441      0.0019
    243  CG2        5.9400   74.2620   57.4770 C.3   441  ILE441      0.0019
    244  CD1        6.1580   71.4460   58.8050 C.3   441  ILE441      0.0001
@<TRIPOS>BOND
     1    92    91    2
     2    35    36    1
     3   101   102    1
     4    91    90    1
     5    36    37    1
     6    36    39    1
     7    38    37    2
     8    44    42   ar
     9    44    45   ar
    10    42    40   ar
    11    93    90    1
    12    93    94    1
    13    90    89    1
    14   102   105    1
    15   102   103    1
    16    46    45    1
    17   240   239    2
    18    37    47   am
    19    45    43   ar
    20    40    39    1
    21    40    41   ar
    22    94    95   ar
    23    94    96   ar
    24   105   106    1
    25   113   112    2
    26   103   104    2
    27   103   110   am
    28    43    41   ar
    29    95    97   ar
    30    96    98   ar
    31   243   241    1
    32   239   238    1
    33    47    48    1
    34   238   241    1
    35   238   237    1
    36   110   111    1
    37    97    99   ar
    38    98    99   ar
    39   112   111    1
    40   106   107    1
    41    48    49    1
    42    84    83    2
    43   242   241    1
    44   242   244    1
    45    99   100    1
    46   111   114    1
    47    81    82    1
    48   107   108   ar
    49   107   109   ar
    50    83    82    1
    51    49    50    2
    52    49    51   am
    53    82    85    1
    54    80    79    2
    55    79    78    1
    56   114   115    1
    57    85    86    1
    58    78    77    1
    59    51    52    1
    60    86    87    1
    61    86    88    1
    62    74    73    2
    63   236   235    2
    64    77    73   am
    65    73    72    1
    66    57    56    1
    67    57    58    2
    68    55    56    1
    69    55    53   am
    70   235   234    1
    71    52    53    1
    72    33    34   ar
    73    33    31   ar
    74   231   232   ar
    75   231   229   ar
    76   234   233    1
    77    53    54    2
    78    59    60    1
    79    34    32   ar
    80   233   225   am
    81   232   230   ar
    82   229   228   ar
    83    71    72    1
    84    71    61   am
    85    72    75    1
    86    31    28   ar
    87    60    61    1
    88    60    63    1
    89    61    62    2
    90   230   228   ar
    91    32    30   ar
    92   228   227    1
    93   225   224    1
    94   225   226    2
    95   181   183   ar
    96   181   179   ar
    97    76    75    1
    98   224   227    1
    99   224   223    1
   100    28    30   ar
   101    28    26   ar
   102   183   184   ar
   103   160   162   ar
   104   160   158   ar
   105   162   161   ar
   106    24    23    2
   107    63    64    1
   108    30    29   ar
   109   178   179    1
   110   178   175    1
   111   177   176    2
   112   179   180   ar
   113    22    23    1
   114    22    25    1
   115    22    21    1
   116    66    64   ar
   117    66    68   ar
   118   158   157   ar
   119    64    65   ar
   120   184   182   ar
   121    26    25    1
   122    26    27   ar
   123   161   159   ar
   124   176   175    1
   125   175   174    1
   126    68    69   ar
   127    29    27   ar
   128   174   165   am
   129   172   171    1
   130   173   171    1
   131    65    67   ar
   132   171   170    2
   133   180   182   ar
   134   206   204   ar
   135   206   205   ar
   136   155   154    2
   137   170   169    1
   138   169   168    1
   139   157   159   ar
   140   157   156    1
   141   204   202   ar
   142    69    67   ar
   143    69    70    1
   144     1     2    1
   145   205   203   ar
   146   164   165    1
   147   164   163    1
   148   164   167    1
   149   165   166    2
   150   154   163   am
   151   154   153    1
   152     4     3    2
   153   156   153    1
   154   194   192   ar
   155   194   195   ar
   156   192   190   ar
   157   168   167    1
   158   202   201   ar
   159   153   152    1
   160     2     3    1
   161     2     5    1
   162   203   201   ar
   163     5     6    1
   164   137   135    1
   165   195   193   ar
   166   201   200    1
   167   190   189    1
   168   190   191   ar
   169   129   127   ar
   170   129   128   ar
   171   189   186    1
   172   127   125   ar
   173   152   146   am
   174   147   146    2
   175   128   126   ar
   176   193   191   ar
   177     6     8   ar
   178     6     7   ar
   179   135   136    1
   180   135   134    1
   181     8    10   ar
   182   146   145    1
   183   200   197    1
   184   125   124   ar
   185   125   123   ar
   186   131   130    1
   187   131   134    1
   188   131   132    1
   189   185   186    1
   190   186   187    1
   191   126   123   ar
   192    13    14    1
   193   196   187   am
   194   196   197    1
   195   124   122   ar
   196   123   121   ar
   197   132   133    2
   198    17    14    1
   199    17    18    1
   200   187   188    2
   201     7     9   ar
   202   197   198    1
   203   116   117    1
   204   143   142    1
   205    10    11   ar
   206    20    18   ar
   207    14    15    1
   208   145   144    1
   209   145   148    1
   210   122   121   ar
   211   117   118    1
   212   117   120    1
   213   142   139    1
   214   121   120    1
   215   150   148    1
   216    18    19   ar
   217   144   140   am
   218     9    11   ar
   219    16    15    2
   220    11    12    1
   221   118   119    2
   222   198   199    2
   223   148   149    1
   224   218   217    1
   225   140   139    1
   226   140   141    2
   227   215   217   ar
   228   215   213   ar
   229   139   138    1
   230   217   216   ar
   231   149   151    1
   232   213   212   ar
   233   216   214   ar
   234   212   214   ar
   235   212   211    1
   236   211   208    1
   237   207   208    1
   238   208   209    1
   239   219   209   am
   240   219   220    1
   241   209   210    2
   242   220   221    1
   243   221   222    2
