@<TRIPOS>MOLECULE
tmp/1h24B00.pdb
 141 135 0 0 0
SMALL
GASTEIGER

@<TRIPOS>ATOM
      1  N         24.1000   83.0110   72.4050 N.3    36  MET36      -0.1245
      2  CA        22.7600   82.9040   71.8490 C.3    36  MET36       0.1570
      3  C         22.2440   81.4730   71.9060 C.2    36  MET36       0.2261
      4  O         21.0460   81.2400   72.0700 O.2    36  MET36      -0.2867
      5  CB        22.6950   83.4150   70.4150 C.3    36  MET36       0.0387
      6  CG        23.2110   84.8210   70.1810 C.3    36  MET36       0.0595
      7  SD        23.2490   85.0290   68.3780 S.3    36  MET36      -0.1393
      8  CE        24.1190   86.4510   68.2810 C.3    36  MET36       0.0692
      9  N         21.0100   80.8850   75.0810 N.3    39  ILE39      -0.1231
     10  CA        19.7130   81.4770   75.1560 C.3    39  ILE39       0.1692
     11  C         18.7220   80.5120   74.5210 C.2    39  ILE39       0.2591
     12  O         17.6100   80.3590   75.0250 O.2    39  ILE39      -0.2718
     13  CB        19.6400   82.8640   74.4890 C.3    39  ILE39       0.0266
     14  CG1       20.4000   83.8990   75.3140 C.3    39  ILE39       0.0019
     15  CG2       18.0860   83.3010   74.2500 C.3    39  ILE39       0.0020
     16  CD1       20.3380   85.2810   74.7380 C.3    39  ILE39       0.0001
     17  N         19.1120   79.8380   73.4420 N.am   40  LEU40      -0.1980
     18  CA        18.1850   78.9640   72.7450 C.3    40  LEU40       0.1596
     19  C         17.8720   77.6900   73.4950 C.2    40  LEU40       0.2287
     20  O         16.7050   77.2670   73.5850 O.2    40  LEU40      -0.2864
     21  CB        18.6870   78.6360   71.3640 C.3    40  LEU40       0.0297
     22  CG        17.9790   77.4810   70.6780 C.3    40  LEU40       0.0022
     23  CD1       16.6430   77.9230   70.1580 C.3    40  LEU40       0.0001
     24  CD2       18.8530   76.9500   69.5500 C.3    40  LEU40       0.0001
     25  N         18.0270   77.1810   76.6790 N.3    42  ASP42      -0.1225
     26  CA        17.2630   77.5430   77.8720 C.3    42  ASP42       0.1805
     27  C         15.7830   77.6160   77.5330 C.2    42  ASP42       0.2597
     28  O         14.9430   77.1780   78.2910 O.2    42  ASP42      -0.2718
     29  CB        17.7320   78.9190   78.3840 C.3    42  ASP42       0.1424
     30  CG        17.2020   79.2530   79.7900 C.2    42  ASP42       0.3668
     31  OD1       16.3340   80.1210   79.8800 O.co2  42  ASP42      -0.2456
     32  OD2       17.5870   78.7010   80.8500 O.co2  42  ASP42      -0.2456
     33  N         15.4860   78.1740   76.3570 N.am   43  TRP43      -0.1976
     34  CA        14.1580   78.3130   75.8290 C.3    43  TRP43       0.1640
     35  C         13.5550   76.9650   75.4990 C.2    43  TRP43       0.2290
     36  O         12.3390   76.7620   75.7060 O.2    43  TRP43      -0.2864
     37  CB        14.1490   79.1720   74.5660 C.3    43  TRP43       0.0576
     38  CG        12.7880   79.3950   74.0430 C.ar   43  TRP43       0.0006
     39  CD1       11.8230   80.0970   74.6420 C.ar   43  TRP43       0.0946
     40  CD2       12.2290   78.8950   72.8270 C.ar   43  TRP43       0.0152
     41  NE1       10.6880   80.0920   73.8750 N.ar   43  TRP43      -0.2442
     42  CE2       10.9150   79.3720   72.7470 C.ar   43  TRP43       0.0810
     43  CE3       12.7340   78.1390   71.7620 C.ar   43  TRP43       0.0012
     44  CZ2       10.0690   79.0810   71.6850 C.ar   43  TRP43       0.0191
     45  CZ3       11.9190   77.8310   70.6990 C.ar   43  TRP43       0.0001
     46  CH2       10.5740   78.3060   70.6690 C.ar   43  TRP43       0.0015
     47  N         12.1820   75.5180   78.6820 N.3    46  GLU46      -0.1231
     48  CA        10.8570   75.9910   79.0950 C.3    46  GLU46       0.1699
     49  C          9.8160   75.4510   78.1340 C.2    46  GLU46       0.2592
     50  O          8.7070   75.1870   78.5210 O.2    46  GLU46      -0.2718
     51  CB        10.7400   77.5260   79.1720 C.3    46  GLU46       0.0402
     52  CG        11.9500   78.2830   79.6720 C.3    46  GLU46       0.1161
     53  CD        11.7720   79.7950   79.5490 C.2    46  GLU46       0.3649
     54  OE1       10.7310   80.3040   80.0340 O.co2  46  GLU46      -0.2457
     55  OE2       12.6550   80.4800   78.9670 O.co2  46  GLU46      -0.2457
     56  N         10.1540   75.3120   76.8640 N.am   47  VAL47      -0.1980
     57  CA         9.1700   74.7480   75.9390 C.3    47  VAL47       0.1595
     58  C          8.8830   73.3130   76.3780 C.2    47  VAL47       0.2287
     59  O          7.7460   72.8700   76.3710 O.2    47  VAL47      -0.2864
     60  CB         9.6320   74.8140   74.4670 C.3    47  VAL47       0.0276
     61  CG1        8.6610   74.0590   73.5270 C.3    47  VAL47       0.0022
     62  CG2        9.7980   76.2690   74.0340 C.3    47  VAL47       0.0022
     63  N          6.7010   73.7960   79.3840 N.3    50  GLU50      -0.1245
     64  CA         5.4090   74.2520   78.9660 C.3    50  GLU50       0.1567
     65  C          4.6350   73.0550   78.4060 C.2    50  GLU50       0.2260
     66  O          3.5400   72.7830   78.8700 O.2    50  GLU50      -0.2867
     67  CB         5.4910   75.3910   77.9420 C.3    50  GLU50       0.0388
     68  CG         4.1310   75.8060   77.3390 C.3    50  GLU50       0.1160
     69  CD         3.1750   76.4920   78.3320 C.2    50  GLU50       0.3649
     70  OE1        3.5220   76.6470   79.5210 O.co2  50  GLU50      -0.2457
     71  OE2        2.0550   76.8690   77.9300 O.co2  50  GLU50      -0.2457
     72  N         21.1680   84.9810   62.9940 N.3    76  ARG76      -0.1245
     73  CA        20.6120   85.0570   64.3630 C.3    76  ARG76       0.1563
     74  C         19.1270   85.0650   64.3730 C.2    76  ARG76       0.2260
     75  O         18.5440   84.5240   65.2880 O.2    76  ARG76      -0.2867
     76  CB        21.1700   86.2250   65.1870 C.3    76  ARG76       0.0307
     77  CG        20.6580   87.6090   64.7660 C.3    76  ARG76       0.0489
     78  CD        21.3800   88.7610   65.4090 C.3    76  ARG76       0.2205
     79  NE        22.8200   88.7120   65.1780 N.pl3  76  ARG76      -0.0865
     80  CZ        23.7040   89.4340   65.8700 C.cat  76  ARG76       0.5346
     81  NH1       23.2890   90.2390   66.8370 N.pl3  76  ARG76       0.1354
     82  NH2       25.0050   89.3300   65.6360 N.pl3  76  ARG76       0.1354
     83  N         17.9770   81.3240   64.1290 N.3    79  LEU79      -0.1231
     84  CA        18.3620   80.3390   65.1090 C.3    79  LEU79       0.1693
     85  C         17.1740   79.6640   65.8160 C.2    79  LEU79       0.2591
     86  O         17.1540   78.4260   65.9590 O.2    79  LEU79      -0.2718
     87  CB        19.3430   80.8920   66.1020 C.3    79  LEU79       0.0284
     88  CG        19.8420   79.8970   67.1540 C.3    79  LEU79       0.0019
     89  CD1       20.5350   78.7370   66.4830 C.3    79  LEU79       0.0001
     90  CD2       20.8010   80.6340   68.0420 C.3    79  LEU79       0.0001
     91  N         16.1770   80.4550   66.2290 N.am   80  GLN80      -0.1979
     92  CA        14.9630   79.9140   66.8860 C.3    80  GLN80       0.1601
     93  C         14.1180   79.0390   65.9460 C.2    80  GLN80       0.2287
     94  O         13.4440   78.0730   66.3490 O.2    80  GLN80      -0.2864
     95  CB        14.1250   81.0340   67.5620 C.3    80  GLN80       0.0394
     96  CG        12.7540   80.5880   68.1020 C.3    80  GLN80       0.0908
     97  CD        11.9880   81.6970   68.8510 C.2    80  GLN80       0.2608
     98  OE1       12.2600   82.8820   68.6780 O.2    80  GLN80      -0.2717
     99  NE2       11.0330   81.3000   69.6730 N.am   80  GLN80      -0.0878
    100  N          2.9590   78.4340   67.7570 N.3   106  TYR106     -0.1227
    101  CA         2.4050   79.2250   68.8500 C.3   106  TYR106      0.1736
    102  C          3.4000   79.5900   69.9680 C.2   106  TYR106      0.2595
    103  O          3.3380   80.6910   70.4950 O.2   106  TYR106     -0.2718
    104  CB         1.1750   78.5440   69.4450 C.3   106  TYR106      0.0548
    105  CG         0.6280   79.1880   70.7180 C.ar  106  TYR106     -0.0200
    106  CD1       -0.4780   80.0390   70.6840 C.ar  106  TYR106     -0.0009
    107  CD2        1.2080   78.9270   71.9560 C.ar  106  TYR106     -0.0009
    108  CE1       -0.9690   80.6150   71.8470 C.ar  106  TYR106      0.0417
    109  CE2        0.7260   79.4880   73.1200 C.ar  106  TYR106      0.0417
    110  CZ        -0.3650   80.3280   73.0620 C.ar  106  TYR106      0.1957
    111  OH        -0.8210   80.8850   74.2350 O.3   106  TYR106     -0.2866
    112  N          4.3250   78.7160   70.3630 N.am  107  ILE107     -0.1966
    113  CA         5.2000   79.2000   71.4180 C.3   107  ILE107      0.1727
    114  C          6.2840   80.1390   70.9060 C.2   107  ILE107      0.2617
    115  O          7.0320   80.7150   71.6950 O.2   107  ILE107     -0.2715
    116  CB         5.8290   78.0960   72.2590 C.3   107  ILE107      0.0290
    117  CG1        6.0390   76.8400   71.4500 C.3   107  ILE107      0.0022
    118  CG2        5.0870   77.9220   73.5720 C.3   107  ILE107      0.0023
    119  CD1        7.4470   76.7450   71.0240 C.3   107  ILE107      0.0001
    120  N          6.3850   80.2990   69.6010 N.am  108  THR108     -0.1937
    121  CA         7.3360   81.2660   69.0930 C.3   108  THR108      0.2028
    122  C          6.7250   82.6740   69.1360 C.2   108  THR108      0.2642
    123  O          7.4500   83.6440   68.9280 O.2   108  THR108     -0.2714
    124  CB         7.7840   80.9410   67.6460 C.3   108  THR108      0.1808
    125  OG1        6.6360   80.6340   66.8530 O.3   108  THR108     -0.2208
    126  CG2        8.6560   79.6590   67.5670 C.3   108  THR108      0.0379
    127  N          5.4210   82.7750   69.4500 N.am  109  ASP109     -0.1971
    128  CA         4.6580   84.0500   69.4620 C.3   109  ASP109      0.1709
    129  C          4.5520   84.5540   68.0360 C.2   109  ASP109      0.2293
    130  O          4.9570   85.6720   67.7290 O.2   109  ASP109     -0.2864
    131  CB         5.3000   85.1070   70.3880 C.3   109  ASP109      0.1436
    132  CG         4.3670   86.2960   70.7230 C.2   109  ASP109      0.3671
    133  OD1        3.1460   86.2260   70.5380 O.co2 109  ASP109     -0.2456
    134  OD2        4.7990   87.3580   71.2010 O.co2 109  ASP109     -0.2456
    135  N          6.3190   84.1330   65.4800 N.3   111  THR111     -0.1218
    136  CA         7.5210   84.5940   64.8160 C.3   111  THR111      0.1862
    137  C          7.7080   83.8990   63.4740 C.2   111  THR111      0.2287
    138  O          8.2490   84.4780   62.5590 O.2   111  THR111     -0.2866
    139  CB         8.7470   84.3130   65.6520 C.3   111  THR111      0.1770
    140  OG1        8.6320   85.0010   66.8940 O.3   111  THR111     -0.2211
    141  CG2       10.0080   84.9320   64.9870 C.3   111  THR111      0.0375
@<TRIPOS>BOND
     1   138   137    2
     2    72    73    1
     3   137   136    1
     4    83    84    1
     5    73    74    1
     6    73    76    1
     7    74    75    2
     8    77    76    1
     9    77    78    1
    10   136   135    1
    11   136   139    1
    12   141   139    1
    13    84    85    1
    14    84    87    1
    15    79    78    1
    16    79    80    2
    17    82    80    1
    18   139   140    1
    19    85    86    2
    20    85    91   am
    21    80    81    1
    22    93    94    2
    23    93    92    1
    24    87    88    1
    25    91    92    1
    26    89    88    1
    27   125   124    1
    28    92    95    1
    29    88    90    1
    30    95    96    1
    31   126   124    1
    32   124   121    1
    33   130   129    2
    34   100   101    1
    35   129   128    1
    36    96    97    1
    37     8     7    1
    38     7     6    1
    39    98    97    2
    40   101   104    1
    41   101   102    1
    42    97    99   am
    43   123   122    2
    44   121   122    1
    45   121   120    1
    46   122   127   am
    47   104   105    1
    48   127   128    1
    49   128   131    1
    50    24    22    1
    51   120   114   am
    52   102   112   am
    53   102   103    2
    54    23    22    1
    55     6     5    1
    56   112   113    1
    57   131   132    1
    58     5     2    1
    59   133   132   ar
    60    46    45   ar
    61    46    44   ar
    62    22    21    1
    63   106   105   ar
    64   106   108   ar
    65    45    43   ar
    66   105   107   ar
    67   132   134   ar
    68   114   113    1
    69   114   115    2
    70   119   117    1
    71    21    18    1
    72   113   116    1
    73   117   116    1
    74    44    42   ar
    75    43    40   ar
    76   108   110   ar
    77     2     3    1
    78     2     1    1
    79     3     4    2
    80   107   109   ar
    81   116   118    1
    82    18    17    1
    83    18    19    1
    84    42    40   ar
    85    42    41   ar
    86    40    38   ar
    87   110   109   ar
    88   110   111    1
    89    17    11   am
    90    19    20    2
    91    61    60    1
    92    41    39   ar
    93    62    60    1
    94    38    37    1
    95    38    39   ar
    96    15    13    1
    97    60    57    1
    98    13    10    1
    99    13    14    1
   100    11    12    2
   101    11    10    1
   102    37    34    1
   103    16    14    1
   104     9    10    1
   105    35    36    2
   106    35    34    1
   107    34    33    1
   108    57    58    1
   109    57    56    1
   110    33    27   am
   111    59    58    2
   112    25    26    1
   113    56    49   am
   114    68    67    1
   115    68    69    1
   116    27    26    1
   117    27    28    2
   118    26    29    1
   119    71    69   ar
   120    67    64    1
   121    49    50    2
   122    49    48    1
   123    69    70   ar
   124    29    30    1
   125    65    66    2
   126    65    64    1
   127    47    48    1
   128    64    63    1
   129    55    53   ar
   130    48    51    1
   131    51    52    1
   132    53    52    1
   133    53    54   ar
   134    30    31   ar
   135    30    32   ar
