@<TRIPOS>MOLECULE
tmp/1h25B00.pdb
 146 139 0 0 0
SMALL
GASTEIGER

@<TRIPOS>ATOM
      1  N         24.1310   83.0700   72.6700 N.3    36  MET36      -0.1245
      2  CA        22.8470   82.9750   72.0300 C.3    36  MET36       0.1570
      3  C         22.3750   81.5230   72.1120 C.2    36  MET36       0.2261
      4  O         21.2280   81.2460   72.4480 O.2    36  MET36      -0.2867
      5  CB        22.9170   83.4440   70.5880 C.3    36  MET36       0.0387
      6  CG        23.4660   84.8380   70.4190 C.3    36  MET36       0.0595
      7  SD        23.5410   85.2700   68.6470 S.3    36  MET36      -0.1393
      8  CE        24.9300   86.4130   68.6690 C.3    36  MET36       0.0692
      9  N         21.1500   80.8460   75.2040 N.3    39  ILE39      -0.1231
     10  CA        19.8570   81.4610   75.3410 C.3    39  ILE39       0.1692
     11  C         18.8630   80.5210   74.6700 C.2    39  ILE39       0.2591
     12  O         17.7810   80.2960   75.2070 O.2    39  ILE39      -0.2718
     13  CB        19.8400   82.8840   74.7160 C.3    39  ILE39       0.0266
     14  CG1       20.7000   83.8140   75.5730 C.3    39  ILE39       0.0019
     15  CG2       18.4110   83.3990   74.6250 C.3    39  ILE39       0.0020
     16  CD1       20.6960   85.2770   75.1760 C.3    39  ILE39       0.0001
     17  N         19.2060   79.9740   73.5010 N.am   40  LEU40      -0.1980
     18  CA        18.3270   79.0170   72.8260 C.3    40  LEU40       0.1596
     19  C         18.1100   77.7940   73.7040 C.2    40  LEU40       0.2287
     20  O         16.9860   77.4850   74.0860 O.2    40  LEU40      -0.2864
     21  CB        18.9190   78.5600   71.5210 C.3    40  LEU40       0.0297
     22  CG        18.1750   77.5290   70.6890 C.3    40  LEU40       0.0022
     23  CD1       16.8790   78.0650   70.2920 C.3    40  LEU40       0.0001
     24  CD2       18.9610   77.2420   69.4380 C.3    40  LEU40       0.0001
     25  N         15.9210   78.4530   76.5490 N.3    43  TRP43      -0.1241
     26  CA        14.5380   78.6260   76.0870 C.3    43  TRP43       0.1605
     27  C         13.9340   77.2710   75.7850 C.2    43  TRP43       0.2264
     28  O         12.7590   77.0590   76.0800 O.2    43  TRP43      -0.2867
     29  CB        14.4590   79.5390   74.8500 C.3    43  TRP43       0.0550
     30  CG        13.1380   79.5550   74.2610 C.ar   43  TRP43       0.0003
     31  CD1       12.0600   80.0370   74.8330 C.ar   43  TRP43       0.0946
     32  CD2       12.7290   78.9980   73.0010 C.ar   43  TRP43       0.0152
     33  NE1       10.9670   79.8530   74.0200 N.ar   43  TRP43      -0.2442
     34  CE2       11.3670   79.2230   72.8770 C.ar   43  TRP43       0.0810
     35  CE3       13.3880   78.3730   71.9510 C.ar   43  TRP43       0.0012
     36  CZ2       10.6420   78.8100   71.7780 C.ar   43  TRP43       0.0191
     37  CZ3       12.6680   77.9950   70.8500 C.ar   43  TRP43       0.0001
     38  CH2       11.3260   78.1930   70.7770 C.ar   43  TRP43       0.0015
     39  N         12.3340   75.6450   78.9230 N.3    46  GLU46      -0.1231
     40  CA        10.9830   76.0700   79.2940 C.3    46  GLU46       0.1699
     41  C         10.0010   75.4910   78.3300 C.2    46  GLU46       0.2592
     42  O          8.9630   75.0080   78.7330 O.2    46  GLU46      -0.2718
     43  CB        10.8340   77.5960   79.3350 C.3    46  GLU46       0.0402
     44  CG        11.7980   78.2690   80.2990 C.3    46  GLU46       0.1161
     45  CD        11.6110   79.7760   80.3590 C.2    46  GLU46       0.3649
     46  OE1       10.9850   80.2470   81.3440 O.co2  46  GLU46      -0.2457
     47  OE2       12.0860   80.4760   79.4270 O.co2  46  GLU46      -0.2457
     48  N         10.3050   75.5060   77.0400 N.am   47  VAL47      -0.1980
     49  CA         9.2920   74.9690   76.1220 C.3    47  VAL47       0.1595
     50  C          9.0020   73.5210   76.5010 C.2    47  VAL47       0.2287
     51  O          7.8940   73.0670   76.4370 O.2    47  VAL47      -0.2864
     52  CB         9.7540   75.0330   74.6730 C.3    47  VAL47       0.0276
     53  CG1        8.7530   74.3550   73.7370 C.3    47  VAL47       0.0022
     54  CG2       10.0510   76.4810   74.2710 C.3    47  VAL47       0.0022
     55  N          6.9240   73.6980   79.5140 N.3    50  GLU50      -0.1245
     56  CA         5.5690   74.1690   79.2280 C.3    50  GLU50       0.1567
     57  C          4.6960   73.0990   78.5980 C.2    50  GLU50       0.2260
     58  O          3.4780   73.0650   78.8030 O.2    50  GLU50      -0.2867
     59  CB         5.6100   75.4100   78.3310 C.3    50  GLU50       0.0388
     60  CG         4.2510   75.8640   77.8060 C.3    50  GLU50       0.1160
     61  CD         3.2590   76.2390   78.9040 C.2    50  GLU50       0.3649
     62  OE1        3.6760   76.5540   80.0480 O.co2  50  GLU50      -0.2457
     63  OE2        2.0430   76.2050   78.6070 O.co2  50  GLU50      -0.2457
     64  N         21.4770   84.9360   63.3080 N.3    76  ARG76      -0.1231
     65  CA        20.7920   84.8990   64.6190 C.3    76  ARG76       0.1694
     66  C         19.2700   84.9290   64.5100 C.2    76  ARG76       0.2592
     67  O         18.5540   84.2370   65.2610 O.2    76  ARG76      -0.2718
     68  CB        21.2540   86.0290   65.5060 C.3    76  ARG76       0.0321
     69  CG        20.7890   87.4160   65.0440 C.3    76  ARG76       0.0489
     70  CD        21.6700   88.5330   65.5940 C.3    76  ARG76       0.2205
     71  NE        23.0610   88.4840   65.1620 N.pl3  76  ARG76      -0.0865
     72  CZ        24.0310   89.1880   65.7510 C.cat  76  ARG76       0.5346
     73  NH1       23.7490   89.9730   66.7880 N.pl3  76  ARG76       0.1354
     74  NH2       25.2870   89.1260   65.3160 N.pl3  76  ARG76       0.1354
     75  N         18.7570   85.7090   63.5660 N.am   77  GLY77      -0.1957
     76  CA        17.3200   85.8220   63.4260 C.3    77  GLY77       0.1869
     77  C         16.6830   84.5030   63.0910 C.2    77  GLY77       0.2309
     78  O         15.4590   84.3550   63.1370 O.2    77  GLY77      -0.2863
     79  N         18.1490   81.5280   64.4680 N.3    79  LEU79      -0.1231
     80  CA        18.4910   80.5950   65.5090 C.3    79  LEU79       0.1693
     81  C         17.2550   79.9120   66.0830 C.2    79  LEU79       0.2591
     82  O         17.1630   78.6950   66.1200 O.2    79  LEU79      -0.2718
     83  CB        19.2880   81.2750   66.6280 C.3    79  LEU79       0.0284
     84  CG        20.1530   80.3590   67.5120 C.3    79  LEU79       0.0019
     85  CD1       20.7060   79.1180   66.7180 C.3    79  LEU79       0.0001
     86  CD2       21.3100   81.1050   68.2340 C.3    79  LEU79       0.0001
     87  N         16.2930   80.6820   66.5370 N.am   80  GLN80      -0.1979
     88  CA        15.1390   80.0900   67.1670 C.3    80  GLN80       0.1601
     89  C         14.4100   79.1510   66.1840 C.2    80  GLN80       0.2287
     90  O         13.7770   78.1570   66.5990 O.2    80  GLN80      -0.2864
     91  CB        14.2170   81.2050   67.7090 C.3    80  GLN80       0.0394
     92  CG        13.0040   80.7860   68.5250 C.3    80  GLN80       0.0908
     93  CD        12.2170   82.0030   69.0670 C.2    80  GLN80       0.2608
     94  OE1       12.2610   83.0790   68.4770 O.2    80  GLN80      -0.2717
     95  NE2       11.5120   81.8240   70.1910 N.am   80  GLN80      -0.0878
     96  N          3.1740   78.5250   67.8910 N.3   106  TYR106     -0.1227
     97  CA         2.5340   79.3300   68.9190 C.3   106  TYR106      0.1736
     98  C          3.5130   79.8610   69.9720 C.2   106  TYR106      0.2595
     99  O          3.4530   81.0470   70.2900 O.2   106  TYR106     -0.2718
    100  CB         1.3380   78.5860   69.5560 C.3   106  TYR106      0.0548
    101  CG         0.7650   79.2750   70.7860 C.ar  106  TYR106     -0.0200
    102  CD1        0.0080   80.4410   70.6750 C.ar  106  TYR106     -0.0009
    103  CD2        0.9890   78.7640   72.0530 C.ar  106  TYR106     -0.0009
    104  CE1       -0.5010   81.0670   71.7910 C.ar  106  TYR106      0.0417
    105  CE2        0.4880   79.3950   73.1860 C.ar  106  TYR106      0.0417
    106  CZ        -0.2630   80.5450   73.0420 C.ar  106  TYR106      0.1957
    107  OH        -0.7700   81.1910   74.1490 O.3   106  TYR106     -0.2866
    108  N          4.4160   79.0290   70.5030 N.am  107  ILE107     -0.1966
    109  CA         5.3570   79.5150   71.5240 C.3   107  ILE107      0.1727
    110  C          6.4950   80.3910   71.0270 C.2   107  ILE107      0.2617
    111  O          7.2860   80.8680   71.8300 O.2   107  ILE107     -0.2715
    112  CB         5.9400   78.3760   72.3920 C.3   107  ILE107      0.0290
    113  CG1        6.3360   77.1730   71.5430 C.3   107  ILE107      0.0022
    114  CG2        4.9420   77.9530   73.4390 C.3   107  ILE107      0.0023
    115  CD1        7.8120   77.1120   71.2010 C.3   107  ILE107      0.0001
    116  N          6.6090   80.5930   69.7180 N.am  108  THR108     -0.1937
    117  CA         7.6320   81.5080   69.2000 C.3   108  THR108      0.2028
    118  C          7.0620   82.9230   69.1040 C.2   108  THR108      0.2642
    119  O          7.6880   83.8070   68.5410 O.2   108  THR108     -0.2714
    120  CB         8.1500   81.0690   67.7970 C.3   108  THR108      0.1808
    121  OG1        7.0730   81.0630   66.8570 O.3   108  THR108     -0.2208
    122  CG2        8.6310   79.6000   67.8070 C.3   108  THR108      0.0379
    123  N          5.8710   83.1300   69.6580 N.am  109  ASP109     -0.1971
    124  CA         5.1870   84.4170   69.5530 C.3   109  ASP109      0.1709
    125  C          5.0790   84.7050   68.0930 C.2   109  ASP109      0.2293
    126  O          5.5420   85.7300   67.6140 O.2   109  ASP109     -0.2864
    127  CB         5.9550   85.5560   70.2080 C.3   109  ASP109      0.1436
    128  CG         5.0440   86.6430   70.7280 C.2   109  ASP109      0.3671
    129  OD1        3.8700   86.3540   71.0430 O.co2 109  ASP109     -0.2456
    130  OD2        5.4120   87.8300   70.8730 O.co2 109  ASP109     -0.2456
    131  N          6.7070   84.1960   65.6790 N.3   111  THR111     -0.1218
    132  CA         7.8840   84.7170   64.9830 C.3   111  THR111      0.1862
    133  C          8.1100   84.0880   63.6140 C.2   111  THR111      0.2287
    134  O          8.7450   84.6810   62.7420 O.2   111  THR111     -0.2866
    135  CB         9.1130   84.4690   65.7890 C.3   111  THR111      0.1770
    136  OG1        8.9940   85.0920   67.0800 O.3   111  THR111     -0.2211
    137  CG2       10.2730   85.1830   65.1350 C.3   111  THR111      0.0375
    138  N         15.2470   76.7180   87.8940 N.3   237  GLU237     -0.1245
    139  CA        13.8410   76.8480   88.2700 C.3   237  GLU237      0.1567
    140  C         13.1620   75.4820   88.2180 C.2   237  GLU237      0.2260
    141  O         12.6020   74.9980   89.1880 O.2   237  GLU237     -0.2867
    142  CB        13.1190   77.8500   87.3640 C.3   237  GLU237      0.0388
    143  CG        13.6950   79.2760   87.4460 C.3   237  GLU237      0.1160
    144  CD        13.8610   79.7860   88.8900 C.2   237  GLU237      0.3649
    145  OE1       12.8610   79.7310   89.6710 O.co2 237  GLU237     -0.2457
    146  OE2       15.0060   80.2310   89.2450 O.co2 237  GLU237     -0.2457
@<TRIPOS>BOND
     1   134   133    2
     2    77    78    2
     3    77    76    1
     4    64    65    1
     5    76    75    1
     6    75    66   am
     7   133   132    1
     8    79    80    1
     9    66    65    1
    10    66    67    2
    11    65    68    1
    12   132   131    1
    13   132   135    1
    14    69    68    1
    15    69    70    1
    16   137   135    1
    17    71    70    1
    18    71    72    2
    19    74    72    1
    20    80    81    1
    21    80    83    1
    22    72    73    1
    23   135   136    1
    24    81    82    2
    25    81    87   am
    26    89    90    2
    27    89    88    1
    28    87    88    1
    29    83    84    1
    30    85    84    1
    31   121   120    1
    32    88    91    1
    33    84    86    1
    34   126   125    2
    35    91    92    1
    36   120   122    1
    37   120   117    1
    38    96    97    1
    39   125   124    1
    40    94    93    2
    41    92    93    1
    42   119   118    2
    43     7     8    1
    44     7     6    1
    45    97   100    1
    46    97    98    1
    47    93    95   am
    48   118   117    1
    49   118   123   am
    50   117   116    1
    51    24    22    1
    52   124   123    1
    53   124   127    1
    54   100   101    1
    55   116   110   am
    56    98    99    2
    57    98   108   am
    58   127   128    1
    59    23    22    1
    60     6     5    1
    61   108   109    1
    62     5     2    1
    63   102   101   ar
    64   102   104   ar
    65    22    21    1
    66   128   130   ar
    67   128   129   ar
    68    38    37   ar
    69    38    36   ar
    70   101   103   ar
    71    37    35   ar
    72   110   109    1
    73   110   111    2
    74   115   113    1
    75    21    18    1
    76   109   112    1
    77   113   112    1
    78    36    34   ar
    79   104   106   ar
    80    35    32   ar
    81     2     3    1
    82     2     1    1
    83   103   105   ar
    84     3     4    2
    85   112   114    1
    86    18    17    1
    87    18    19    1
    88    34    32   ar
    89    34    33   ar
    90    32    30   ar
    91   106   105   ar
    92   106   107    1
    93    17    11   am
    94    19    20    2
    95    53    52    1
    96    33    31   ar
    97    30    31   ar
    98    30    29    1
    99    54    52    1
   100    15    13    1
   101    11    12    2
   102    11    10    1
   103    52    49    1
   104    13    10    1
   105    13    14    1
   106    29    26    1
   107    16    14    1
   108     9    10    1
   109    27    28    2
   110    27    26    1
   111    26    25    1
   112    49    50    1
   113    49    48    1
   114    51    50    2
   115    48    41   am
   116    60    59    1
   117    60    61    1
   118    41    42    2
   119    41    40    1
   120    59    56    1
   121    57    58    2
   122    57    56    1
   123    63    61   ar
   124    61    62   ar
   125    39    40    1
   126    56    55    1
   127    40    43    1
   128    43    44    1
   129    47    45   ar
   130    44    45    1
   131    45    46   ar
   132   142   143    1
   133   142   139    1
   134   143   144    1
   135   138   139    1
   136   140   139    1
   137   140   141    2
   138   144   146   ar
   139   144   145   ar
