@<TRIPOS>MOLECULE
tmp/1h27B00.pdb
 117 111 0 0 0
SMALL
GASTEIGER

@<TRIPOS>ATOM
      1  N         24.1220  149.9440   72.4190 N.3    36  MET36      -0.1245
      2  CA        22.8500  149.7910   71.7410 C.3    36  MET36       0.1570
      3  C         22.4510  148.3300   71.7470 C.2    36  MET36       0.2261
      4  O         21.2860  148.0050   71.7360 O.2    36  MET36      -0.2867
      5  CB        22.9310  150.2520   70.2900 C.3    36  MET36       0.0387
      6  CG        23.5260  151.6290   70.0710 C.3    36  MET36       0.0595
      7  SD        23.5680  151.9680   68.2840 S.3    36  MET36      -0.1393
      8  CE        22.3290  153.2130   68.2540 C.3    36  MET36       0.0692
      9  N         20.8830  147.7840   74.9950 N.3    39  ILE39      -0.1231
     10  CA        19.5070  148.2780   75.0610 C.3    39  ILE39       0.1692
     11  C         18.5190  147.3380   74.4420 C.2    39  ILE39       0.2591
     12  O         17.4400  147.0910   74.9980 O.2    39  ILE39      -0.2718
     13  CB        19.3930  149.6550   74.3800 C.3    39  ILE39       0.0266
     14  CG1       20.0750  150.6990   75.2490 C.3    39  ILE39       0.0019
     15  CG2       17.9400  150.0110   74.1520 C.3    39  ILE39       0.0020
     16  CD1       20.3210  152.0240   74.5450 C.3    39  ILE39       0.0001
     17  N         18.8860  146.7830   73.2930 N.am   40  LEU40      -0.1980
     18  CA        17.9870  145.8930   72.5900 C.3    40  LEU40       0.1596
     19  C         17.7340  144.6230   73.4180 C.2    40  LEU40       0.2287
     20  O         16.6170  144.1550   73.5420 O.2    40  LEU40      -0.2864
     21  CB        18.6170  145.4820   71.2760 C.3    40  LEU40       0.0297
     22  CG        17.8930  144.4230   70.4740 C.3    40  LEU40       0.0022
     23  CD1       16.5990  145.0400   69.9510 C.3    40  LEU40       0.0001
     24  CD2       18.7760  143.9650   69.3200 C.3    40  LEU40       0.0001
     25  N         18.0580  144.1520   76.4980 N.3    42  ASP42      -0.1225
     26  CA        17.3150  144.4880   77.6910 C.3    42  ASP42       0.1805
     27  C         15.8280  144.6540   77.3900 C.2    42  ASP42       0.2597
     28  O         14.9990  144.0740   78.0320 O.2    42  ASP42      -0.2718
     29  CB        17.9180  145.7310   78.3200 C.3    42  ASP42       0.1424
     30  CG        17.2440  146.1060   79.5900 C.2    42  ASP42       0.3668
     31  OD1       16.2640  146.8350   79.5120 O.co2  42  ASP42      -0.2456
     32  OD2       17.5310  145.5920   80.6780 O.co2  42  ASP42      -0.2456
     33  N         15.5300  145.2040   76.2260 N.am   43  TRP43      -0.1976
     34  CA        14.1560  145.2950   75.7480 C.3    43  TRP43       0.1640
     35  C         13.5580  143.9060   75.4840 C.2    43  TRP43       0.2290
     36  O         12.3860  143.6620   75.7990 O.2    43  TRP43      -0.2864
     37  CB        14.1500  146.1130   74.4470 C.3    43  TRP43       0.0576
     38  CG        12.8370  146.2070   73.8270 C.ar   43  TRP43       0.0006
     39  CD1       11.7860  146.8850   74.2980 C.ar   43  TRP43       0.0946
     40  CD2       12.4050  145.5820   72.6230 C.ar   43  TRP43       0.0152
     41  NE1       10.6940  146.7000   73.4860 N.ar   43  TRP43      -0.2442
     42  CE2       11.0750  145.9690   72.4090 C.ar   43  TRP43       0.0810
     43  CE3       13.0490  144.8780   71.6180 C.ar   43  TRP43       0.0012
     44  CZ2       10.3570  145.5780   71.3060 C.ar   43  TRP43       0.0191
     45  CZ3       12.3240  144.4370   70.5740 C.ar   43  TRP43       0.0001
     46  CH2       11.0030  144.8060   70.3980 C.ar   43  TRP43       0.0015
     47  N         12.2230  142.4200   78.4700 N.3    46  GLU46      -0.1245
     48  CA        10.9230  143.0060   78.7850 C.3    46  GLU46       0.1567
     49  C          9.8450  142.3510   77.9540 C.2    46  GLU46       0.2260
     50  O          8.8460  141.9310   78.4470 O.2    46  GLU46      -0.2867
     51  CB        10.9030  144.5110   78.4660 C.3    46  GLU46       0.0388
     52  CG        11.8460  145.3480   79.2920 C.3    46  GLU46       0.1160
     53  CD        11.1110  146.4820   79.9450 C.2    46  GLU46       0.3649
     54  OE1       10.8000  146.3700   81.1710 O.co2  46  GLU46      -0.2457
     55  OE2       10.6680  147.3660   79.1720 O.co2  46  GLU46      -0.2457
     56  N         21.1420  151.8360   62.7720 N.3    76  ARG76      -0.1231
     57  CA        20.7030  151.8520   64.1480 C.3    76  ARG76       0.1694
     58  C         19.2150  151.8120   64.1820 C.2    76  ARG76       0.2592
     59  O         18.6280  151.2020   65.0620 O.2    76  ARG76      -0.2718
     60  CB        21.2030  153.0570   64.9070 C.3    76  ARG76       0.0321
     61  CG        20.7250  154.4130   64.4080 C.3    76  ARG76       0.0489
     62  CD        21.4690  155.5670   65.1130 C.3    76  ARG76       0.2205
     63  NE        22.9230  155.3980   65.0190 N.pl3  76  ARG76      -0.0865
     64  CZ        23.8250  156.2640   65.4630 C.cat  76  ARG76       0.5346
     65  NH1       23.4460  157.3530   66.1400 N.pl3  76  ARG76       0.1354
     66  NH2       25.1300  155.9920   65.2990 N.pl3  76  ARG76       0.1354
     67  N         18.6130  152.4830   63.2140 N.am   77  GLY77      -0.1957
     68  CA        17.1880  152.5440   63.1390 C.3    77  GLY77       0.1869
     69  C         16.5150  151.2600   62.7490 C.2    77  GLY77       0.2309
     70  O         15.2990  151.1530   62.8830 O.2    77  GLY77      -0.2863
     71  N         18.0170  148.1480   63.9950 N.3    79  LEU79      -0.1231
     72  CA        18.4150  147.1330   64.9690 C.3    79  LEU79       0.1693
     73  C         17.1940  146.4590   65.6620 C.2    79  LEU79       0.2591
     74  O         17.0860  145.2190   65.7010 O.2    79  LEU79      -0.2718
     75  CB        19.3420  147.7450   65.9880 C.3    79  LEU79       0.0284
     76  CG        20.1260  146.7720   66.8920 C.3    79  LEU79       0.0019
     77  CD1       21.1450  145.8920   66.1130 C.3    79  LEU79       0.0001
     78  CD2       20.8330  147.6060   67.9680 C.3    79  LEU79       0.0001
     79  N         16.2120  147.2730   66.0450 N.am   80  GLN80      -0.1979
     80  CA        15.0340  146.7620   66.7100 C.3    80  GLN80       0.1601
     81  C         14.1410  145.9100   65.8210 C.2    80  GLN80       0.2287
     82  O         13.4740  145.0060   66.2930 O.2    80  GLN80      -0.2864
     83  CB        14.2340  147.8540   67.4010 C.3    80  GLN80       0.0394
     84  CG        13.1490  147.3200   68.2900 C.3    80  GLN80       0.0908
     85  CD        12.2220  148.3960   68.8820 C.2    80  GLN80       0.2608
     86  OE1       11.3720  148.0800   69.7070 O.2    80  GLN80      -0.2717
     87  NE2       12.4080  149.6260   68.5040 N.am   80  GLN80      -0.0878
     88  N          4.4950  145.7450   70.0140 N.3   107  ILE107     -0.1231
     89  CA         5.5180  146.0010   71.0330 C.3   107  ILE107      0.1692
     90  C          6.6250  146.9570   70.5730 C.2   107  ILE107      0.2593
     91  O          7.4040  147.4200   71.4100 O.2   107  ILE107     -0.2718
     92  CB         6.1930  144.6840   71.5290 C.3   107  ILE107      0.0266
     93  CG1        6.7680  143.9010   70.3650 C.3   107  ILE107      0.0019
     94  CG2        5.2330  143.8400   72.2610 C.3   107  ILE107      0.0020
     95  CD1        7.9040  142.9800   70.7420 C.3   107  ILE107      0.0001
     96  N          6.8260  147.1050   69.2620 N.am  108  THR108     -0.1939
     97  CA         7.7360  148.1470   68.7830 C.3   108  THR108      0.2028
     98  C          7.0600  149.5130   68.6930 C.2   108  THR108      0.2642
     99  O          7.6340  150.4200   68.1170 O.2   108  THR108     -0.2714
    100  CB         8.3280  147.8390   67.4150 C.3   108  THR108      0.1808
    101  OG1        7.3070  147.9310   66.4180 O.3   108  THR108     -0.2208
    102  CG2        8.8790  146.4030   67.3030 C.3   108  THR108      0.0379
    103  N          5.9220  149.6820   69.3710 N.am  109  ASP109     -0.1971
    104  CA         5.0860  150.9000   69.2800 C.3   109  ASP109      0.1709
    105  C          4.9680  151.3900   67.8410 C.2   109  ASP109      0.2293
    106  O          5.1350  152.5820   67.5610 O.2   109  ASP109     -0.2864
    107  CB         5.5930  152.0360   70.1990 C.3   109  ASP109      0.1436
    108  CG         4.4750  153.0760   70.5750 C.2   109  ASP109      0.3671
    109  OD1        3.3870  152.6630   71.0370 O.co2 109  ASP109     -0.2456
    110  OD2        4.6200  154.3270   70.5240 O.co2 109  ASP109     -0.2456
    111  N          6.8260  151.2010   65.2950 N.3   111  THR111     -0.1218
    112  CA         8.0160  151.5890   64.5750 C.3   111  THR111      0.1862
    113  C          8.0740  150.8910   63.2010 C.2   111  THR111      0.2287
    114  O          8.3880  151.4680   62.1940 O.2   111  THR111     -0.2866
    115  CB         9.1960  151.2130   65.4380 C.3   111  THR111      0.1770
    116  OG1        8.9450  151.6260   66.7850 O.3   111  THR111     -0.2211
    117  CG2       10.4560  151.9610   65.0270 C.3   111  THR111      0.0375
@<TRIPOS>BOND
     1   114   113    2
     2    69    70    2
     3    69    68    1
     4    56    57    1
     5    68    67    1
     6   113   112    1
     7    67    58   am
     8    71    72    1
     9    57    58    1
    10    57    60    1
    11    58    59    2
    12    61    60    1
    13    61    62    1
    14   112   111    1
    15   112   115    1
    16    72    73    1
    17    72    75    1
    18    63    62    1
    19    63    64    2
    20   117   115    1
    21    66    64    1
    22   115   116    1
    23    64    65    1
    24    73    74    2
    25    73    79   am
    26    81    82    2
    27    81    80    1
    28    75    76    1
    29    79    80    1
    30    77    76    1
    31   101   100    1
    32    80    83    1
    33    76    78    1
    34   102   100    1
    35    83    84    1
    36   100    97    1
    37   106   105    2
    38   105   104    1
    39    99    98    2
    40     8     7    1
    41     7     6    1
    42    84    85    1
    43    87    85   am
    44    98    97    1
    45    98   103   am
    46    97    96    1
    47    85    86    2
    48    96    90   am
    49   104   103    1
    50   104   107    1
    51    24    22    1
    52    23    22    1
    53    88    89    1
    54     6     5    1
    55   107   108    1
    56     5     2    1
    57    93    95    1
    58    93    92    1
    59    46    45   ar
    60    46    44   ar
    61    22    21    1
    62   110   108   ar
    63    90    89    1
    64    90    91    2
    65    45    43   ar
    66   108   109   ar
    67    89    92    1
    68    21    18    1
    69    44    42   ar
    70    92    94    1
    71    43    40   ar
    72     4     3    2
    73     2     3    1
    74     2     1    1
    75    42    40   ar
    76    42    41   ar
    77    18    17    1
    78    18    19    1
    79    40    38   ar
    80    17    11   am
    81    19    20    2
    82    41    39   ar
    83    38    39   ar
    84    38    37    1
    85    15    13    1
    86    13    10    1
    87    13    14    1
    88    11    12    2
    89    11    10    1
    90    37    34    1
    91    16    14    1
    92     9    10    1
    93    35    34    1
    94    35    36    2
    95    34    33    1
    96    33    27   am
    97    25    26    1
    98    27    26    1
    99    27    28    2
   100    26    29    1
   101    49    50    2
   102    49    48    1
   103    29    30    1
   104    51    48    1
   105    51    52    1
   106    47    48    1
   107    55    53   ar
   108    52    53    1
   109    31    30   ar
   110    30    32   ar
   111    53    54   ar
