@<TRIPOS>MOLECULE
tmp/1h28B00.pdb
 175 170 0 0 0
SMALL
GASTEIGER

@<TRIPOS>ATOM
      1  N         49.4450   67.4110   45.4860 N.3    36  MET36      -0.1245
      2  CA        48.2080   66.9160   44.9440 C.3    36  MET36       0.1570
      3  C         48.2330   66.3300   43.5610 C.2    36  MET36       0.2261
      4  O         47.4180   65.4760   43.2420 O.2    36  MET36      -0.2867
      5  CB        47.2560   68.0600   44.8730 C.3    36  MET36       0.0387
      6  CG        47.4090   69.0480   45.9700 C.3    36  MET36       0.0595
      7  SD        46.0120   70.1130   45.8760 S.3    36  MET36      -0.1393
      8  CE        44.9760   69.0380   45.3710 C.3    36  MET36       0.0692
      9  N         49.1780   62.7390   44.3670 N.3    39  ILE39      -0.1231
     10  CA        48.0620   61.9880   44.8260 C.3    39  ILE39       0.1692
     11  C         47.2390   61.5970   43.5900 C.2    39  ILE39       0.2591
     12  O         46.6650   60.5160   43.5260 O.2    39  ILE39      -0.2718
     13  CB        47.2770   62.8380   45.8060 C.3    39  ILE39       0.0266
     14  CG1       48.2120   63.1990   46.9350 C.3    39  ILE39       0.0019
     15  CG2       45.9980   62.1220   46.2200 C.3    39  ILE39       0.0020
     16  CD1       47.4940   63.8260   48.1190 C.3    39  ILE39       0.0001
     17  N         47.2120   62.5070   42.6130 N.am   40  LEU40      -0.1980
     18  CA        46.5040   62.2870   41.3690 C.3    40  LEU40       0.1596
     19  C         47.1330   61.1750   40.5090 C.2    40  LEU40       0.2287
     20  O         46.4300   60.1990   40.1520 O.2    40  LEU40      -0.2864
     21  CB        46.3360   63.5990   40.5820 C.3    40  LEU40       0.0297
     22  CG        45.8440   63.2890   39.1840 C.3    40  LEU40       0.0022
     23  CD1       44.6630   62.4990   39.3540 C.3    40  LEU40       0.0001
     24  CD2       45.5700   64.4240   38.2610 C.3    40  LEU40       0.0001
     25  N         49.3600   59.1040   41.3950 N.3    42  ASP42      -0.1225
     26  CA        49.4780   57.8700   42.1540 C.3    42  ASP42       0.1805
     27  C         48.2300   57.0140   42.0370 C.2    42  ASP42       0.2597
     28  O         48.2750   55.7920   41.9420 O.2    42  ASP42      -0.2718
     29  CB        49.7690   58.1230   43.6340 C.3    42  ASP42       0.1424
     30  CG        49.6900   56.8400   44.4740 C.2    42  ASP42       0.3668
     31  OD1       50.6920   56.0900   44.5530 O.co2  42  ASP42      -0.2456
     32  OD2       48.6450   56.5060   45.0620 O.co2  42  ASP42      -0.2456
     33  N         47.1050   57.6830   42.0710 N.am   43  TRP43      -0.1976
     34  CA        45.8310   57.0460   41.8670 C.3    43  TRP43       0.1640
     35  C         45.7270   56.4070   40.4990 C.2    43  TRP43       0.2290
     36  O         45.3910   55.2640   40.4080 O.2    43  TRP43      -0.2864
     37  CB        44.7420   58.0860   42.0330 C.3    43  TRP43       0.0576
     38  CG        43.4380   57.5840   41.7280 C.ar   43  TRP43       0.0006
     39  CD1       42.8480   56.5110   42.2750 C.ar   43  TRP43       0.0946
     40  CD2       42.5210   58.1330   40.8050 C.ar   43  TRP43       0.0152
     41  NE1       41.5850   56.3570   41.7690 N.ar   43  TRP43      -0.2442
     42  CE2       41.3660   57.3400   40.8480 C.ar   43  TRP43       0.0810
     43  CE3       42.5520   59.2240   39.9400 C.ar   43  TRP43       0.0012
     44  CZ2       40.2720   57.5840   40.0570 C.ar   43  TRP43       0.0191
     45  CZ3       41.4830   59.4780   39.1540 C.ar   43  TRP43       0.0001
     46  CH2       40.3350   58.6630   39.2150 C.ar   43  TRP43       0.0015
     47  N         47.1830   53.1680   40.2340 N.3    46  GLU46      -0.1231
     48  CA        46.1650   52.2830   40.8010 C.3    46  GLU46       0.1699
     49  C         45.0140   52.0150   39.8440 C.2    46  GLU46       0.2592
     50  O         44.6380   50.8750   39.6760 O.2    46  GLU46      -0.2718
     51  CB        45.6390   52.8150   42.1340 C.3    46  GLU46       0.0402
     52  CG        45.7940   51.8710   43.3280 C.3    46  GLU46       0.1161
     53  CD        45.9450   52.6370   44.6440 C.2    46  GLU46       0.3649
     54  OE1       45.4230   53.7900   44.7180 O.co2  46  GLU46      -0.2457
     55  OE2       46.6070   52.1050   45.5840 O.co2  46  GLU46      -0.2457
     56  N         44.4480   53.0280   39.2020 N.am   47  VAL47      -0.1980
     57  CA        43.4090   52.7520   38.2270 C.3    47  VAL47       0.1595
     58  C         43.9130   51.7890   37.1390 C.2    47  VAL47       0.2287
     59  O         43.2600   50.8000   36.8300 O.2    47  VAL47      -0.2864
     60  CB        42.8410   54.0150   37.5750 C.3    47  VAL47       0.0276
     61  CG1       41.6460   53.6440   36.7050 C.3    47  VAL47       0.0022
     62  CG2       42.4450   55.0450   38.6030 C.3    47  VAL47       0.0022
     63  N         43.8020   47.8520   37.9670 N.3    50  GLU50      -0.1245
     64  CA        42.4580   47.3890   38.2520 C.3    50  GLU50       0.1567
     65  C         41.7610   47.0590   36.9710 C.2    50  GLU50       0.2260
     66  O         40.8760   46.2090   36.9260 O.2    50  GLU50      -0.2867
     67  CB        41.6880   48.5610   38.8840 C.3    50  GLU50       0.0388
     68  CG        40.3730   48.1980   39.5280 C.3    50  GLU50       0.1160
     69  CD        40.5360   48.0960   41.0170 C.2    50  GLU50       0.3649
     70  OE1       40.0210   48.9490   41.7250 O.co2  50  GLU50      -0.2457
     71  OE2       41.2310   47.1700   41.4700 O.co2  50  GLU50      -0.2457
     72  N         40.7020   72.5480   43.0390 N.3    76  ARG76      -0.1231
     73  CA        40.7400   71.2390   43.7310 C.3    76  ARG76       0.1694
     74  C         39.6700   70.1890   43.3640 C.2    76  ARG76       0.2593
     75  O         39.9930   69.0660   42.9500 O.2    76  ARG76      -0.2718
     76  CB        40.7530   71.4320   45.2590 C.3    76  ARG76       0.0321
     77  CG        42.1730   71.3610   45.8610 C.3    76  ARG76       0.0489
     78  CD        42.2780   71.2130   47.3700 C.3    76  ARG76       0.2205
     79  NE        42.7680   69.8780   47.7310 N.pl3  76  ARG76      -0.0865
     80  CZ        42.7200   69.3570   48.9610 C.cat  76  ARG76       0.5346
     81  NH1       42.2040   70.0560   49.9540 N.pl3  76  ARG76       0.1354
     82  NH2       43.1750   68.1390   49.2030 N.pl3  76  ARG76       0.1354
     83  N         38.3960   70.5500   43.5520 N.am   77  GLY77      -0.1942
     84  CA        37.2530   69.7580   43.1220 C.3    77  GLY77       0.2014
     85  C         37.4150   69.1070   41.7760 C.2    77  GLY77       0.2639
     86  O         36.9890   67.9720   41.6020 O.2    77  GLY77      -0.2714
     87  N         38.0730   69.8110   40.8460 N.am   78  LYS78      -0.1963
     88  CA        38.1970   69.3980   39.4330 C.3    78  LYS78       0.1728
     89  C         39.4760   68.6680   39.0070 C.2    78  LYS78       0.2616
     90  O         39.5450   68.1380   37.9100 O.2    78  LYS78      -0.2715
     91  CB        38.0180   70.6160   38.5370 C.3    78  LYS78       0.0311
     92  CG        36.6640   71.2260   38.6590 C.3    78  LYS78       0.0038
     93  CD        35.6440   70.2280   38.2630 C.3    78  LYS78       0.0206
     94  CE        34.3390   70.8640   38.1670 C.3    78  LYS78       0.1093
     95  NZ        33.9700   71.1910   39.4960 N.3    78  LYS78      -0.1314
     96  N         40.5100   68.6440   39.8310 N.am   79  LEU79      -0.1963
     97  CA        41.7560   68.0610   39.3480 C.3    79  LEU79       0.1728
     98  C         41.4160   66.6210   38.9850 C.2    79  LEU79       0.2616
     99  O         41.7340   66.1390   37.8860 O.2    79  LEU79      -0.2715
    100  CB        42.8780   68.1660   40.4030 C.3    79  LEU79       0.0311
    101  CG        44.2770   67.6240   40.1350 C.3    79  LEU79       0.0022
    102  CD1       44.8490   68.1010   38.8680 C.3    79  LEU79       0.0001
    103  CD2       45.1950   67.9110   41.2680 C.3    79  LEU79       0.0001
    104  N         40.7010   65.9500   39.8920 N.am   80  GLN80      -0.1977
    105  CA        40.3050   64.5780   39.6070 C.3    80  GLN80       0.1601
    106  C         39.5450   64.4130   38.2810 C.2    80  GLN80       0.2287
    107  O         39.6800   63.4160   37.6010 O.2    80  GLN80      -0.2864
    108  CB        39.6020   63.9320   40.7790 C.3    80  GLN80       0.0394
    109  CG        39.6050   62.3810   40.6960 C.3    80  GLN80       0.0908
    110  CD        39.0540   61.6750   41.9240 C.2    80  GLN80       0.2608
    111  OE1       38.2410   62.2150   42.6510 O.2    80  GLN80      -0.2717
    112  NE2       39.4780   60.4810   42.1320 N.am   80  GLN80      -0.0878
    113  N         32.7170   55.2760   37.8440 N.3   106  TYR106     -0.1227
    114  CA        32.8730   54.3970   38.9830 C.3   106  TYR106      0.1736
    115  C         34.2220   54.6220   39.7240 C.2   106  TYR106      0.2595
    116  O         34.2140   54.7690   40.9340 O.2   106  TYR106     -0.2718
    117  CB        32.5770   52.9130   38.5980 C.3   106  TYR106      0.0548
    118  CG        32.9500   51.8980   39.6610 C.ar  106  TYR106     -0.0200
    119  CD1       32.0520   51.4920   40.6370 C.ar  106  TYR106     -0.0009
    120  CD2       34.2310   51.3620   39.6930 C.ar  106  TYR106     -0.0009
    121  CE1       32.4530   50.5930   41.6160 C.ar  106  TYR106      0.0417
    122  CE2       34.6260   50.4890   40.6650 C.ar  106  TYR106      0.0417
    123  CZ        33.7650   50.1220   41.6110 C.ar  106  TYR106      0.1957
    124  OH        34.2290   49.2300   42.5070 O.3   106  TYR106     -0.2866
    125  N         35.3780   54.6820   39.0770 N.am  107  ILE107     -0.1966
    126  CA        36.6170   54.7450   39.8890 C.3   107  ILE107      0.1727
    127  C         36.8490   56.0790   40.5940 C.2   107  ILE107      0.2617
    128  O         37.7140   56.1830   41.4370 O.2   107  ILE107     -0.2715
    129  CB        37.8650   54.4630   39.0710 C.3   107  ILE107      0.0290
    130  CG1       37.8190   55.3390   37.8220 C.3   107  ILE107      0.0022
    131  CG2       37.9800   53.0230   38.7460 C.3   107  ILE107      0.0023
    132  CD1       39.1370   55.5770   37.2190 C.3   107  ILE107      0.0001
    133  N         36.1220   57.1150   40.2110 N.am  108  THR108     -0.1937
    134  CA        36.1390   58.3860   40.9410 C.3   108  THR108      0.2028
    135  C         35.0900   58.3350   42.0770 C.2   108  THR108      0.2642
    136  O         34.8860   59.2890   42.8310 O.2   108  THR108     -0.2714
    137  CB        35.7900   59.5470   40.0170 C.3   108  THR108      0.1808
    138  OG1       34.3750   59.7340   40.0470 O.3   108  THR108     -0.2208
    139  CG2       36.0950   59.2570   38.5740 C.3   108  THR108      0.0379
    140  N         34.4510   57.1770   42.1800 N.am  109  ASP109     -0.1971
    141  CA        33.4290   56.9040   43.1720 C.3   109  ASP109      0.1709
    142  C         32.2640   57.8850   43.0160 C.2   109  ASP109      0.2293
    143  O         31.8880   58.5530   43.9760 O.2   109  ASP109     -0.2864
    144  CB        34.0130   56.8980   44.5910 C.3   109  ASP109      0.1436
    145  CG        32.9310   56.7880   45.6650 C.2   109  ASP109      0.3671
    146  OD1       31.7710   56.7600   45.2990 O.co2 109  ASP109     -0.2456
    147  OD2       33.1210   56.7200   46.8860 O.co2 109  ASP109     -0.2456
    148  N         31.9960   60.7180   41.8240 N.3   111  THR111     -0.1203
    149  CA        32.1920   62.1580   41.9620 C.3   111  THR111      0.1994
    150  C         31.4920   62.9650   40.8240 C.2   111  THR111      0.2617
    151  O         30.5580   63.7130   41.0470 O.2   111  THR111     -0.2717
    152  CB        33.6720   62.4880   42.0150 C.3   111  THR111      0.1784
    153  OG1       34.2420   61.9750   43.2230 O.3   111  THR111     -0.2211
    154  CG2       33.8230   63.9450   42.1160 C.3   111  THR111      0.0376
    155  N         31.9710   62.7720   39.6030 N.am  112  TYR112     -0.1975
    156  CA        31.4450   63.4460   38.4440 C.3   112  TYR112      0.1639
    157  C         30.5240   62.5330   37.7000 C.2   112  TYR112      0.2290
    158  O         30.4860   61.3280   37.8970 O.2   112  TYR112     -0.2864
    159  CB        32.5840   63.8930   37.5310 C.3   112  TYR112      0.0560
    160  CG        33.7560   64.3910   38.3060 C.ar  112  TYR112     -0.0198
    161  CD1       33.7170   65.6200   38.8740 C.ar  112  TYR112     -0.0009
    162  CD2       34.8860   63.6140   38.5050 C.ar  112  TYR112     -0.0009
    163  CE1       34.7550   66.0990   39.5840 C.ar  112  TYR112      0.0417
    164  CE2       35.9340   64.0900   39.2570 C.ar  112  TYR112      0.0417
    165  CZ        35.8610   65.3550   39.7830 C.ar  112  TYR112      0.1957
    166  OH        36.8530   65.9200   40.5310 O.3   112  TYR112     -0.2866
    167  N         30.0130   65.0740   32.4900 N.3   116  GLN116     -0.1245
    168  CA        31.1920   65.8090   32.9120 C.3   116  GLN116      0.1566
    169  C         32.5210   65.2430   32.3820 C.2   116  GLN116      0.2260
    170  O         33.2200   65.9040   31.6480 O.2   116  GLN116     -0.2867
    171  CB        31.1980   65.9230   34.4270 C.3   116  GLN116      0.0367
    172  CG        30.2870   67.0170   34.9340 C.3   116  GLN116      0.0905
    173  CD        30.2500   67.0950   36.4140 C.2   116  GLN116      0.2608
    174  OE1       30.1800   66.0820   37.0920 O.2   116  GLN116     -0.2717
    175  NE2       30.2870   68.2750   36.9230 N.am  116  GLN116     -0.0878
@<TRIPOS>BOND
     1   170   169    2
     2   169   168    1
     3   167   168    1
     4   168   171    1
     5   171   172    1
     6   172   173    1
     7   173   175   am
     8   173   174    2
     9    61    60    1
    10    59    58    2
    11    66    65    2
    12    65    64    1
    13    58    57    1
    14   132   130    1
    15   159   160    1
    16   159   156    1
    17    60    57    1
    18    60    62    1
    19   107   106    2
    20   157   158    2
    21   157   156    1
    22   130   129    1
    23   113   114    1
    24    99    98    2
    25    90    89    2
    26    63    64    1
    27    94    93    1
    28    94    95    1
    29    57    56    1
    30    64    67    1
    31    24    22    1
    32    93    92    1
    33   106   105    1
    34   160   162   ar
    35   160   161   ar
    36   156   155    1
    37   162   164   ar
    38    91    92    1
    39    91    88    1
    40   139   137    1
    41   117   114    1
    42   117   118    1
    43   131   129    1
    44   102   101    1
    45   161   163   ar
    46    67    68    1
    47   114   115    1
    48    98    97    1
    49    98   104   am
    50    89    88    1
    51    89    96   am
    52   129   126    1
    53   125   115   am
    54   125   126    1
    55    45    46   ar
    56    45    43   ar
    57    22    23    1
    58    22    21    1
    59    56    49   am
    60    46    44   ar
    61   164   165   ar
    62    97    96    1
    63    97   100    1
    64    88    87    1
    65    68    69    1
    66   163   165   ar
    67   155   150   am
    68   105   104    1
    69   105   108    1
    70   118   120   ar
    71   118   119   ar
    72    50    49    2
    73   120   122   ar
    74   115   116    2
    75   165   166    1
    76    49    48    1
    77   126   127    1
    78    43    40   ar
    79   137   138    1
    80   137   134    1
    81    44    42   ar
    82   101   100    1
    83   101   103    1
    84    20    19    2
    85   133   127   am
    86   133   134    1
    87    47    48    1
    88    36    35    2
    89    35    34    1
    90    19    18    1
    91    21    18    1
    92   127   128    2
    93   119   121   ar
    94   122   123   ar
    95   109   108    1
    96   109   110    1
    97    48    51    1
    98    40    42   ar
    99    40    38   ar
   100   150   151    2
   101   150   149    1
   102    87    85   am
   103    42    41   ar
   104   134   135    1
   105    69    71   ar
   106    69    70   ar
   107    18    17    1
   108    25    26    1
   109    86    85    2
   110   123   121   ar
   111   123   124    1
   112    38    37    1
   113    38    39   ar
   114    41    39   ar
   115    85    84    1
   116   148   149    1
   117    34    37    1
   118    34    33    1
   119   110   112   am
   120   110   111    2
   121    28    27    2
   122   149   152    1
   123   152   154    1
   124   152   153    1
   125    27    33   am
   126    27    26    1
   127   135   140   am
   128   135   136    2
   129    51    52    1
   130    26    29    1
   131   140   141    1
   132    17    11   am
   133    75    74    2
   134   142   141    1
   135   142   143    2
   136    72    73    1
   137    84    83    1
   138   141   144    1
   139     4     3    2
   140    52    53    1
   141    74    83   am
   142    74    73    1
   143    12    11    2
   144     3     2    1
   145    11    10    1
   146    29    30    1
   147    73    76    1
   148     9    10    1
   149    30    31   ar
   150    30    32   ar
   151   144   145    1
   152    53    54   ar
   153    53    55   ar
   154    10    13    1
   155     5     2    1
   156     5     6    1
   157     2     1    1
   158    76    77    1
   159   146   145   ar
   160     8     7    1
   161   145   147   ar
   162    13    15    1
   163    13    14    1
   164    77    78    1
   165     7     6    1
   166    14    16    1
   167    78    79    1
   168    79    80    2
   169    80    82    1
   170    80    81    1
