@<TRIPOS>MOLECULE
tmp/1h28D00.pdb
 175 170 0 0 0
SMALL
GASTEIGER

@<TRIPOS>ATOM
      1  N         49.4670   87.7180   -9.4250 N.3    36  MET36      -0.1245
      2  CA        48.2430   88.2810   -8.9110 C.3    36  MET36       0.1570
      3  C         48.5240   88.9620   -7.5950 C.2    36  MET36       0.2261
      4  O         48.0590   90.0500   -7.3590 O.2    36  MET36      -0.2867
      5  CB        47.1770   87.1900   -8.7580 C.3    36  MET36       0.0387
      6  CG        46.9000   86.5020  -10.0660 C.3    36  MET36       0.0595
      7  SD        46.3110   84.8710   -9.9720 S.3    36  MET36      -0.1393
      8  CE        44.6510   85.1320   -9.5470 C.3    36  MET36       0.0692
      9  N         49.6910   92.2590   -8.3770 N.3    39  ILE39      -0.1231
     10  CA        48.5370   93.1000   -8.7160 C.3    39  ILE39       0.1692
     11  C         47.7580   93.4740   -7.4930 C.2    39  ILE39       0.2591
     12  O         47.4030   94.5910   -7.3640 O.2    39  ILE39      -0.2718
     13  CB        47.6710   92.4270   -9.7820 C.3    39  ILE39       0.0266
     14  CG1       48.4620   92.3680  -11.0900 C.3    39  ILE39       0.0019
     15  CG2       46.3340   93.1380  -10.0010 C.3    39  ILE39       0.0020
     16  CD1       47.8820   91.3640  -12.0160 C.3    39  ILE39       0.0001
     17  N         47.5680   92.5490   -6.5690 N.am   40  LEU40      -0.1980
     18  CA        46.8170   92.8230   -5.3500 C.3    40  LEU40       0.1596
     19  C         47.4160   93.9060   -4.4530 C.2    40  LEU40       0.2287
     20  O         46.7160   94.8290   -4.0450 O.2    40  LEU40      -0.2864
     21  CB        46.6890   91.5650   -4.5050 C.3    40  LEU40       0.0297
     22  CG        45.8440   91.9730   -3.3020 C.3    40  LEU40       0.0022
     23  CD1       44.4010   92.1000   -3.7750 C.3    40  LEU40       0.0001
     24  CD2       45.9400   91.0160   -2.1620 C.3    40  LEU40       0.0001
     25  N         49.6050   96.0940   -5.3880 N.3    42  ASP42      -0.1225
     26  CA        49.6540   97.3400   -6.1340 C.3    42  ASP42       0.1805
     27  C         48.3440   98.0620   -6.0760 C.2    42  ASP42       0.2597
     28  O         48.3160   99.2560   -5.8550 O.2    42  ASP42      -0.2718
     29  CB        50.0180   97.0840   -7.5770 C.3    42  ASP42       0.1424
     30  CG        49.9360   98.3310   -8.4450 C.2    42  ASP42       0.3668
     31  OD1       50.9480   98.9970   -8.5710 O.co2  42  ASP42      -0.2456
     32  OD2       48.8950   98.7030   -9.0280 O.co2  42  ASP42      -0.2456
     33  N         47.2550   97.3430   -6.2720 N.am   43  TRP43      -0.1976
     34  CA        45.9370   97.9180   -6.1090 C.3    43  TRP43       0.1640
     35  C         45.7940   98.5000   -4.7600 C.2    43  TRP43       0.2290
     36  O         45.4220   99.6390   -4.6280 O.2    43  TRP43      -0.2864
     37  CB        44.8990   96.8390   -6.2210 C.3    43  TRP43       0.0576
     38  CG        43.5160   97.2970   -5.9070 C.ar   43  TRP43       0.0006
     39  CD1       42.8610   98.2750   -6.4940 C.ar   43  TRP43       0.0946
     40  CD2       42.6620   96.7740   -4.9170 C.ar   43  TRP43       0.0152
     41  NE1       41.6170   98.4100   -5.9610 N.ar   43  TRP43      -0.2442
     42  CE2       41.4700   97.4740   -4.9860 C.ar   43  TRP43       0.0810
     43  CE3       42.7850   95.7660   -3.9710 C.ar   43  TRP43       0.0012
     44  CZ2       40.3920   97.2060   -4.1460 C.ar   43  TRP43       0.0191
     45  CZ3       41.7530   95.5100   -3.1520 C.ar   43  TRP43       0.0001
     46  CH2       40.5600   96.2220   -3.2320 C.ar   43  TRP43       0.0015
     47  N         47.1220  101.7280   -4.2240 N.3    46  GLU46      -0.1231
     48  CA        46.2180  102.7320   -4.8230 C.3    46  GLU46       0.1699
     49  C         44.9860  103.0360   -3.9570 C.2    46  GLU46       0.2592
     50  O         44.6570  104.1650   -3.6850 O.2    46  GLU46      -0.2718
     51  CB        45.8150  102.3270   -6.2640 C.3    46  GLU46       0.0402
     52  CG        46.7310  102.9150   -7.3690 C.3    46  GLU46       0.1161
     53  CD        46.5620  102.3250   -8.7820 C.2    46  GLU46       0.3649
     54  OE1       46.2750  101.1120   -8.8970 O.co2  46  GLU46      -0.2457
     55  OE2       46.7700  103.0910   -9.7740 O.co2  46  GLU46      -0.2457
     56  N         44.3490  102.0000   -3.4600 N.am   47  VAL47      -0.1980
     57  CA        43.4130  102.1360   -2.3550 C.3    47  VAL47       0.1595
     58  C         43.8800  103.0100   -1.1860 C.2    47  VAL47       0.2287
     59  O         43.0770  103.7030   -0.5490 O.2    47  VAL47      -0.2864
     60  CB        43.0440  100.7680   -1.8470 C.3    47  VAL47       0.0276
     61  CG1       41.8830  100.8770   -0.8680 C.3    47  VAL47       0.0022
     62  CG2       42.7240   99.8520   -3.0330 C.3    47  VAL47       0.0022
     63  N         43.6220  106.9670   -2.1890 N.3    50  GLU50      -0.1245
     64  CA        42.2320  107.4170   -2.2550 C.3    50  GLU50       0.1567
     65  C         41.7280  107.7800   -0.8810 C.2    50  GLU50       0.2260
     66  O         41.1340  108.8380   -0.6810 O.2    50  GLU50      -0.2867
     67  CB        41.3280  106.3260   -2.8860 C.3    50  GLU50       0.0388
     68  CG        39.9630  106.7870   -3.4220 C.3    50  GLU50       0.1160
     69  CD        40.0080  107.1720   -4.8870 C.2    50  GLU50       0.3649
     70  OE1       39.4340  106.4530   -5.7190 O.co2  50  GLU50      -0.2457
     71  OE2       40.6200  108.2030   -5.2130 O.co2  50  GLU50      -0.2457
     72  N         41.0710   82.5540   -7.1150 N.3    76  ARG76      -0.1231
     73  CA        41.2890   83.9060   -7.6710 C.3    76  ARG76       0.1694
     74  C         40.0610   84.8380   -7.6220 C.2    76  ARG76       0.2593
     75  O         40.1540   86.0700   -7.4650 O.2    76  ARG76      -0.2718
     76  CB        41.8750   83.8300   -9.0950 C.3    76  ARG76       0.0321
     77  CG        40.9210   83.5410  -10.2430 C.3    76  ARG76       0.0489
     78  CD        41.5770   83.5200  -11.6130 C.3    76  ARG76       0.2205
     79  NE        41.3630   84.8000  -12.2950 N.pl3  76  ARG76      -0.0865
     80  CZ        42.2880   85.6200  -12.8070 C.cat  76  ARG76       0.5346
     81  NH1       43.5930   85.3520  -12.7650 N.pl3  76  ARG76       0.1354
     82  NH2       41.8840   86.7460  -13.3610 N.pl3  76  ARG76       0.1354
     83  N         38.8910   84.2300   -7.7190 N.am   77  GLY77      -0.1942
     84  CA        37.6660   84.9220   -7.3710 C.3    77  GLY77       0.2014
     85  C         37.6710   85.6250   -6.0260 C.2    77  GLY77       0.2639
     86  O         37.1820   86.7350   -5.9170 O.2    77  GLY77      -0.2714
     87  N         38.1920   84.9860   -4.9870 N.am   78  LYS78      -0.1963
     88  CA        38.2300   85.6330   -3.6640 C.3    78  LYS78       0.1728
     89  C         39.5330   86.2820   -3.2730 C.2    78  LYS78       0.2616
     90  O         39.5360   87.0350   -2.3560 O.2    78  LYS78      -0.2715
     91  CB        37.7850   84.6950   -2.5570 C.3    78  LYS78       0.0311
     92  CG        36.4410   84.1020   -2.7980 C.3    78  LYS78       0.0038
     93  CD        35.4040   85.1760   -2.8300 C.3    78  LYS78       0.0206
     94  CE        34.0440   84.7960   -2.1920 C.3    78  LYS78       0.1093
     95  NZ        33.4580   83.6680   -2.8400 N.3    78  LYS78      -0.1314
     96  N         40.6210   86.0450   -3.9930 N.am   79  LEU79      -0.1963
     97  CA        41.9030   86.6600   -3.6380 C.3    79  LEU79       0.1728
     98  C         41.6940   88.0820   -3.2030 C.2    79  LEU79       0.2616
     99  O         42.1720   88.5140   -2.1560 O.2    79  LEU79      -0.2715
    100  CB        42.9140   86.6280   -4.8070 C.3    79  LEU79       0.0311
    101  CG        44.2280   87.3470   -4.5480 C.3    79  LEU79       0.0022
    102  CD1       44.5940   87.1680   -3.1580 C.3    79  LEU79       0.0001
    103  CD2       45.3100   86.8420   -5.3660 C.3    79  LEU79       0.0001
    104  N         40.9970   88.8340   -4.0340 N.am   80  GLN80      -0.1977
    105  CA        40.8430   90.2240   -3.7450 C.3    80  GLN80       0.1601
    106  C         39.8930   90.4550   -2.5910 C.2    80  GLN80       0.2287
    107  O         39.8440   91.5330   -2.0790 O.2    80  GLN80      -0.2864
    108  CB        40.4040   91.0080   -4.9820 C.3    80  GLN80       0.0394
    109  CG        39.3650   92.1140   -4.6480 C.3    80  GLN80       0.0908
    110  CD        39.1890   93.2160   -5.7000 C.2    80  GLN80       0.2608
    111  OE1       39.6570   94.3410   -5.5000 O.2    80  GLN80      -0.2717
    112  NE2       38.4790   92.9090   -6.7840 N.am   80  GLN80      -0.0878
    113  N         32.7710   99.7790   -2.0420 N.3   106  TYR106     -0.1227
    114  CA        32.6660  100.6020   -3.2450 C.3   106  TYR106      0.1736
    115  C         33.9430  100.4590   -3.9800 C.2   106  TYR106      0.2595
    116  O         33.9450  100.1540   -5.1590 O.2   106  TYR106     -0.2718
    117  CB        32.3590  102.0920   -2.9550 C.3   106  TYR106      0.0548
    118  CG        32.8770  103.1110   -3.9840 C.ar  106  TYR106     -0.0200
    119  CD1       32.0550  103.5990   -4.9770 C.ar  106  TYR106     -0.0009
    120  CD2       34.1890  103.6020   -3.9230 C.ar  106  TYR106     -0.0009
    121  CE1       32.5110  104.4970   -5.8930 C.ar  106  TYR106      0.0417
    122  CE2       34.6530  104.5130   -4.8310 C.ar  106  TYR106      0.0417
    123  CZ        33.8180  104.9630   -5.8240 C.ar  106  TYR106      0.1957
    124  OH        34.2880  105.8870   -6.7590 O.3   106  TYR106     -0.2866
    125  N         35.0520  100.6630   -3.2920 N.am  107  ILE107     -0.1966
    126  CA        36.3040  100.6460   -3.9690 C.3   107  ILE107      0.1727
    127  C         36.6000   99.3360   -4.6980 C.2   107  ILE107      0.2617
    128  O         37.3370   99.3130   -5.6710 O.2   107  ILE107     -0.2715
    129  CB        37.3440  100.9690   -3.0590 C.3   107  ILE107      0.0290
    130  CG1       38.5660  101.3550   -3.9040 C.3   107  ILE107      0.0022
    131  CG2       37.4650   99.8490   -2.0740 C.3   107  ILE107      0.0023
    132  CD1       39.8610  101.2730   -3.1840 C.3   107  ILE107      0.0001
    133  N         36.0170   98.2320   -4.2830 N.am  108  THR108     -0.1937
    134  CA        36.1410   97.0130   -5.0960 C.3   108  THR108      0.2028
    135  C         35.1400   96.9050   -6.2460 C.2   108  THR108      0.2642
    136  O         35.1560   95.9460   -6.9870 O.2   108  THR108     -0.2714
    137  CB        35.9550   95.8150   -4.2510 C.3   108  THR108      0.1808
    138  OG1       34.6020   95.8000   -3.7940 O.3   108  THR108     -0.2208
    139  CG2       36.8160   95.8660   -3.0520 C.3   108  THR108      0.0379
    140  N         34.2870   97.9090   -6.3600 N.am  109  ASP109     -0.1971
    141  CA        33.2460   98.0220   -7.3710 C.3   109  ASP109      0.1709
    142  C         32.1120   97.0130   -7.1270 C.2   109  ASP109      0.2293
    143  O         31.6410   96.3650   -8.0540 O.2   109  ASP109     -0.2864
    144  CB        33.8580   97.9880   -8.7880 C.3   109  ASP109      0.1436
    145  CG        32.9440   98.5840   -9.8570 C.2   109  ASP109      0.3671
    146  OD1       31.9080   99.1850   -9.5170 O.co2 109  ASP109     -0.2456
    147  OD2       33.1820   98.4680  -11.0710 O.co2 109  ASP109     -0.2456
    148  N         32.1480   94.2410   -6.1430 N.3   111  THR111     -0.1203
    149  CA        32.4600   92.8650   -6.4270 C.3   111  THR111      0.1994
    150  C         31.9590   92.0080   -5.2900 C.2   111  THR111      0.2617
    151  O         31.3880   91.0170   -5.5490 O.2   111  THR111     -0.2717
    152  CB        33.9420   92.6910   -6.7000 C.3   111  THR111      0.1784
    153  OG1       34.6570   93.7730   -6.1390 O.3   111  THR111     -0.2211
    154  CG2       34.1940   92.9090   -8.1080 C.3   111  THR111      0.0376
    155  N         32.1340   92.4340   -4.0370 N.am  112  TYR112     -0.1975
    156  CA        31.6880   91.6890   -2.8480 C.3   112  TYR112      0.1639
    157  C         30.6750   92.4510   -1.9800 C.2   112  TYR112      0.2290
    158  O         30.6800   93.6630   -1.9500 O.2   112  TYR112     -0.2864
    159  CB        32.8870   91.3660   -1.9810 C.3   112  TYR112      0.0560
    160  CG        34.0560   90.8350   -2.7130 C.ar  112  TYR112     -0.0198
    161  CD1       34.0670   89.5430   -3.2090 C.ar  112  TYR112     -0.0009
    162  CD2       35.1740   91.6130   -2.8850 C.ar  112  TYR112     -0.0009
    163  CE1       35.1200   89.0560   -3.8680 C.ar  112  TYR112      0.0417
    164  CE2       36.2830   91.1230   -3.5260 C.ar  112  TYR112      0.0417
    165  CZ        36.2750   89.8440   -4.0330 C.ar  112  TYR112      0.1957
    166  OH        37.4180   89.3640   -4.7020 O.3   112  TYR112     -0.2866
    167  N         30.0560   89.6420    3.2410 N.3   116  GLN116     -0.1245
    168  CA        31.3020   89.0920    2.7080 C.3   116  GLN116      0.1566
    169  C         32.5830   89.7610    3.2830 C.2   116  GLN116      0.2260
    170  O         33.3510   89.1470    3.9840 O.2   116  GLN116     -0.2867
    171  CB        31.2830   89.1400    1.1770 C.3   116  GLN116      0.0367
    172  CG        30.5800   87.9940    0.4870 C.3   116  GLN116      0.0905
    173  CD        30.6740   88.0780   -1.0450 C.2   116  GLN116      0.2608
    174  OE1       30.3910   89.1170   -1.6340 O.2   116  GLN116     -0.2717
    175  NE2       31.0800   86.9900   -1.6770 N.am  116  GLN116     -0.0878
@<TRIPOS>BOND
     1    82    80    1
     2    80    81    1
     3    80    79    2
     4    79    78    1
     5    16    14    1
     6    78    77    1
     7    14    13    1
     8   147   145   ar
     9    77    76    1
    10     6     7    1
    11     6     5    1
    12    15    13    1
    13     7     8    1
    14   145   146   ar
    15   145   144    1
    16    13    10    1
    17    55    53   ar
    18     1     2    1
    19    76    73    1
    20    32    30   ar
    21     2     5    1
    22     2     3    1
    23    54    53   ar
    24   144   141    1
    25    53    52    1
    26    10     9    1
    27    10    11    1
    28    31    30   ar
    29    30    29    1
    30   154   152    1
    31   143   142    2
    32    83    74   am
    33    83    84    1
    34    73    74    1
    35    73    72    1
    36    74    75    2
    37     3     4    2
    38    29    26    1
    39    11    12    2
    40    11    17   am
    41   141   142    1
    42   141   140    1
    43    84    85    1
    44    52    51    1
    45   136   135    2
    46   112   110   am
    47   124   123    1
    48   152   149    1
    49   152   153    1
    50    17    18    1
    51    39    41   ar
    52    39    38   ar
    53   149   148    1
    54   149   150    1
    55   140   135   am
    56    33    34    1
    57    33    27   am
    58    51    48    1
    59   135   134    1
    60    37    34    1
    61    37    38    1
    62    26    27    1
    63    26    25    1
    64    34    35    1
    65    27    28    2
    66    85    86    2
    67    85    87   am
    68    41    42   ar
    69    38    40   ar
    70   121   123   ar
    71   121   119   ar
    72   123   122   ar
    73    70    69   ar
    74   110   111    2
    75   110   109    1
    76   128   127    2
    77   151   150    2
    78   103   101    1
    79    18    21    1
    80    18    19    1
    81   150   155   am
    82    71    69   ar
    83   116   115    2
    84   134   133    1
    85   134   137    1
    86    87    88    1
    87    42    40   ar
    88    42    44   ar
    89   108   109    1
    90   108   105    1
    91   119   118   ar
    92    40    43   ar
    93    69    68    1
    94   122   120   ar
    95    48    47    1
    96    48    49    1
    97   100   101    1
    98   100    97    1
    99    35    36    2
   100   166   165    1
   101   127   133   am
   102   127   126    1
   103   101   102    1
   104    21    22    1
   105    19    20    2
   106   137   138    1
   107   137   139    1
   108    44    46   ar
   109   155   156    1
   110   104   105    1
   111   104    98   am
   112   165   163   ar
   113   165   164   ar
   114    96    97    1
   115    96    89   am
   116   118   120   ar
   117   118   117    1
   118   115   125   am
   119   115   114    1
   120    43    45   ar
   121   126   125    1
   122   126   129    1
   123    49    50    2
   124    49    56   am
   125   130   132    1
   126   130   129    1
   127   163   161   ar
   128    23    22    1
   129   105   106    1
   130    88    89    1
   131    88    91    1
   132    97    98    1
   133   164   162   ar
   134    56    57    1
   135    68    67    1
   136    22    24    1
   137    89    90    2
   138   114   117    1
   139   114   113    1
   140    46    45   ar
   141   161   160   ar
   142    98    99    2
   143   129   131    1
   144    62    60    1
   145    67    64    1
   146   162   160   ar
   147   156   159    1
   148   156   157    1
   149    95    94    1
   150    93    92    1
   151    93    94    1
   152    92    91    1
   153   160   159    1
   154   106   107    2
   155    57    60    1
   156    57    58    1
   157    64    63    1
   158    64    65    1
   159   157   158    2
   160    60    61    1
   161   175   173   am
   162   174   173    2
   163    58    59    2
   164   173   172    1
   165    65    66    2
   166   172   171    1
   167   171   168    1
   168   168   167    1
   169   168   169    1
   170   169   170    2
