@<TRIPOS>MOLECULE
tmp/1h2bB00.pdb
 122 114 0 0 0
SMALL
GASTEIGER

@<TRIPOS>ATOM
      1  N         98.9780  -25.8980   35.3830 N.3    39  CYS39      -0.1235
      2  CA        99.4130  -24.5150   35.3220 C.3    39  CYS39       0.1677
      3  C         99.5760  -23.9180   36.7140 C.2    39  CYS39       0.2270
      4  O         98.8540  -24.3190   37.6420 O.2    39  CYS39      -0.2867
      5  CB        98.3260  -23.7420   34.5450 C.3    39  CYS39       0.0956
      6  SG        98.6720  -21.9780   34.2400 S.3    39  CYS39      -0.0801
      7  N         98.2370  -21.3310   37.5040 N.3    41  THR41      -0.1218
      8  CA        96.8870  -20.8940   37.7780 C.3    41  THR41       0.1862
      9  C         96.0920  -21.9190   38.5670 C.2    41  THR41       0.2287
     10  O         95.1750  -21.5300   39.3080 O.2    41  THR41      -0.2866
     11  CB        96.1830  -20.5940   36.4660 C.3    41  THR41       0.1770
     12  OG1       96.7150  -19.3600   35.9730 O.3    41  THR41      -0.2211
     13  CG2       94.6520  -20.3830   36.6800 C.3    41  THR41       0.0375
     14  N         90.5040  -16.9570   42.5490 N.3    50  TRP50      -0.1241
     15  CA        89.5550  -16.6350   41.4900 C.3    50  TRP50       0.1605
     16  C         88.0850  -16.6780   41.9160 C.2    50  TRP50       0.2264
     17  O         87.2050  -16.3290   41.1230 O.2    50  TRP50      -0.2867
     18  CB        89.7400  -17.5680   40.3030 C.3    50  TRP50       0.0550
     19  CG        90.9490  -17.2650   39.4840 C.ar   50  TRP50       0.0003
     20  CD1       92.1420  -17.9100   39.5370 C.ar   50  TRP50       0.0946
     21  CD2       91.0870  -16.2380   38.5050 C.ar   50  TRP50       0.0152
     22  NE1       93.0200  -17.3750   38.6270 N.ar   50  TRP50      -0.2442
     23  CE2       92.3920  -16.3420   37.9770 C.ar   50  TRP50       0.0810
     24  CE3       90.2350  -15.2550   38.0010 C.ar   50  TRP50       0.0012
     25  CZ2       92.8740  -15.5000   36.9870 C.ar   50  TRP50       0.0191
     26  CZ3       90.7150  -14.4070   36.9860 C.ar   50  TRP50       0.0001
     27  CH2       92.0280  -14.5460   36.4980 C.ar   50  TRP50       0.0015
     28  N         85.1670  -15.0390   39.5180 N.3    54  LEU54      -0.1245
     29  CA        84.4690  -15.9680   38.6320 C.3    54  LEU54       0.1561
     30  C         83.2580  -16.6170   39.2890 C.2    54  LEU54       0.2260
     31  O         82.3660  -17.1010   38.5880 O.2    54  LEU54      -0.2867
     32  CB        85.4200  -17.0680   38.1470 C.3    54  LEU54       0.0270
     33  CG        86.6710  -16.6080   37.3960 C.3    54  LEU54       0.0019
     34  CD1       87.4890  -17.8210   37.0610 C.3    54  LEU54       0.0001
     35  CD2       86.3480  -15.7810   36.1440 C.3    54  LEU54       0.0001
     36  N         92.9080  -26.7080   32.1810 N.3    64  HIS64      -0.1241
     37  CA        92.5540  -25.8320   31.0510 C.3    64  HIS64       0.1621
     38  C         93.6210  -25.8020   29.9500 C.2    64  HIS64       0.2264
     39  O         93.6150  -24.8900   29.0960 O.2    64  HIS64      -0.2867
     40  CB        92.2880  -24.3900   31.5440 C.3    64  HIS64       0.0745
     41  CG        93.4360  -23.8120   32.3130 C.ar   64  HIS64       0.0817
     42  ND1       93.5910  -24.0140   33.6720 N.ar   64  HIS64      -0.2268
     43  CD2       94.4490  -22.9890   31.9300 C.ar   64  HIS64       0.1154
     44  CE1       94.6830  -23.3800   34.0740 C.ar   64  HIS64       0.1986
     45  NE2       95.2330  -22.7710   33.0390 N.ar   64  HIS64      -0.2212
     46  N         89.3090  -14.0160   23.9960 N.3   106  MET106     -0.1245
     47  CA        89.3130  -13.7860   25.4400 C.3   106  MET106      0.1570
     48  C         88.4110  -12.6670   25.8870 C.2   106  MET106      0.2261
     49  O         88.2080  -12.4710   27.0940 O.2   106  MET106     -0.2867
     50  CB        90.7390  -13.6020   25.9950 C.3   106  MET106      0.0387
     51  CG        91.7110  -14.7860   25.7410 C.3   106  MET106      0.0595
     52  SD        91.0330  -16.3490   26.3390 S.3   106  MET106     -0.1393
     53  CE        90.7590  -15.9690   28.0100 C.3   106  MET106      0.0692
     54  N         81.7790  -15.7680   27.5140 N.3   111  LEU111     -0.1245
     55  CA        82.9210  -16.6720   27.6530 C.3   111  LEU111      0.1561
     56  C         82.7670  -17.6610   28.8110 C.2   111  LEU111      0.2260
     57  O         82.4330  -17.2890   29.9340 O.2   111  LEU111     -0.2867
     58  CB        84.1850  -15.8270   27.9030 C.3   111  LEU111      0.0270
     59  CG        85.5320  -16.5300   27.8090 C.3   111  LEU111      0.0019
     60  CD1       85.4570  -17.8000   27.0630 C.3   111  LEU111      0.0001
     61  CD2       86.3730  -15.5900   27.0070 C.3   111  LEU111      0.0001
     62  N         85.1340  -21.1410   30.4040 N.3   113  PHE113     -0.1241
     63  CA        86.5480  -21.4900   30.3580 C.3   113  PHE113      0.1605
     64  C         86.7000  -22.8010   31.1000 C.2   113  PHE113      0.2264
     65  O         86.8130  -22.8110   32.3570 O.2   113  PHE113     -0.2867
     66  CB        87.3440  -20.3290   31.0020 C.3   113  PHE113      0.0534
     67  CG        88.8210  -20.2610   30.6460 C.ar  113  PHE113     -0.0203
     68  CD1       89.3300  -19.1550   29.9660 C.ar  113  PHE113     -0.0042
     69  CD2       89.7130  -21.2080   31.1130 C.ar  113  PHE113     -0.0042
     70  CE1       90.6950  -19.0630   29.6700 C.ar  113  PHE113     -0.0003
     71  CE2       91.0860  -21.1200   30.8440 C.ar  113  PHE113     -0.0003
     72  CZ        91.5770  -20.0360   30.1070 C.ar  113  PHE113     -0.0000
     73  N         88.5040  -23.4130   34.5910 N.3   116  LEU116     -0.1245
     74  CA        88.6270  -22.1880   35.3850 C.3   116  LEU116      0.1561
     75  C         87.3500  -21.9570   36.1340 C.2   116  LEU116      0.2260
     76  O         87.3800  -21.7220   37.3240 O.2   116  LEU116     -0.2867
     77  CB        88.8660  -20.9510   34.5150 C.3   116  LEU116      0.0270
     78  CG        90.2900  -20.4070   34.5240 C.3   116  LEU116      0.0019
     79  CD1       90.5900  -19.6680   35.7990 C.3   116  LEU116      0.0001
     80  CD2       91.3070  -21.5300   34.3000 C.3   116  LEU116      0.0001
     81  N         97.8100  -23.3140   26.6250 N.3   153  ASP153     -0.1239
     82  CA        97.6240  -22.2410   27.5970 C.3   153  ASP153      0.1674
     83  C         98.9730  -21.5600   27.9000 C.2   153  ASP153      0.2266
     84  O         99.1560  -20.3710   27.6400 O.2   153  ASP153     -0.2867
     85  CB        97.0340  -22.8080   28.8740 C.3   153  ASP153      0.1410
     86  CG        96.6960  -21.7530   29.8630 C.2   153  ASP153      0.3668
     87  OD1       97.3250  -21.8040   30.9600 O.co2 153  ASP153     -0.2456
     88  OD2       95.8560  -20.8520   29.6440 O.co2 153  ASP153     -0.2456
     89  N         99.7410  -18.1210   25.7400 N.3   157  THR157     -0.1218
     90  CA        99.9110  -16.9220   26.5770 C.3   157  THR157      0.1862
     91  C        101.2930  -16.3090   26.3340 C.2   157  THR157      0.2287
     92  O        101.4340  -15.0740   26.1470 O.2   157  THR157     -0.2866
     93  CB        99.7300  -17.2710   28.0540 C.3   157  THR157      0.1770
     94  OG1       98.4410  -17.8540   28.2350 O.3   157  THR157     -0.2211
     95  CG2       99.7930  -15.9850   28.9070 C.3   157  THR157      0.0375
     96  N        100.3880  -13.2950   37.7260 N.3   271  TYR271     -0.1241
     97  CA        99.5360  -12.4740   38.5910 C.3   271  TYR271      0.1605
     98  C         99.5270  -13.0560   40.0080 C.2   271  TYR271      0.2264
     99  O         99.9780  -14.1710   40.2500 O.2   271  TYR271     -0.2867
    100  CB        98.0980  -12.3210   38.0400 C.3   271  TYR271      0.0534
    101  CG        97.4160  -13.6310   37.8850 C.ar  271  TYR271     -0.0201
    102  CD1       96.7280  -14.1660   38.9530 C.ar  271  TYR271     -0.0009
    103  CD2       97.5630  -14.4080   36.7230 C.ar  271  TYR271     -0.0009
    104  CE1       96.1420  -15.4220   38.8700 C.ar  271  TYR271      0.0417
    105  CE2       96.9720  -15.6490   36.6300 C.ar  271  TYR271      0.0417
    106  CZ        96.2650  -16.1450   37.7250 C.ar  271  TYR271      0.1957
    107  OH        95.7280  -17.4040   37.6660 O.3   271  TYR271     -0.2866
    108  N         96.6200  -11.5420   28.2320 N.3   293  LEU293     -0.1231
    109  CA        95.6470  -12.5380   28.6940 C.3   293  LEU293      0.1693
    110  C         95.5620  -13.6520   27.6310 C.2   293  LEU293      0.2591
    111  O         95.0210  -13.4290   26.5500 O.2   293  LEU293     -0.2718
    112  CB        94.2560  -11.8800   28.8450 C.3   293  LEU293      0.0284
    113  CG        93.1160  -12.8560   29.2210 C.3   293  LEU293      0.0019
    114  CD1       93.3610  -13.5010   30.5770 C.3   293  LEU293      0.0001
    115  CD2       91.7890  -12.0460   29.2480 C.3   293  LEU293      0.0001
    116  N         96.0960  -14.8240   27.9870 N.am  294  VAL294     -0.1980
    117  CA        96.0120  -16.0250   27.1370 C.3   294  VAL294      0.1595
    118  C         96.2580  -15.6130   25.6960 C.2   294  VAL294      0.2287
    119  O         97.2930  -15.0530   25.4110 O.2   294  VAL294     -0.2864
    120  CB        94.6890  -16.7960   27.4150 C.3   294  VAL294      0.0276
    121  CG1       94.7630  -18.2350   26.8290 C.3   294  VAL294      0.0022
    122  CG2       94.4010  -16.9480   28.9180 C.3   294  VAL294      0.0022
@<TRIPOS>BOND
     1    46    47    1
     2   119   118    2
     3    47    48    1
     4    47    50    1
     5   118   117    1
     6    89    90    1
     7    51    50    1
     8    51    52    1
     9    48    49    2
    10    92    91    2
    11    91    90    1
    12    52    53    1
    13   111   110    2
    14    90    93    1
    15    81    82    1
    16   121   120    1
    17    61    59    1
    18    60    59    1
    19   117   120    1
    20   117   116    1
    21   120   122    1
    22    54    55    1
    23    82    83    1
    24    82    85    1
    25   110   116   am
    26   110   109    1
    27    84    83    2
    28    55    58    1
    29    55    56    1
    30    59    58    1
    31    93    94    1
    32    93    95    1
    33   108   109    1
    34   109   112    1
    35    56    57    2
    36   112   113    1
    37    85    86    1
    38    39    38    2
    39   113   115    1
    40   113   114    1
    41    88    86   ar
    42    70    68   ar
    43    70    72   ar
    44    86    87   ar
    45    38    37    1
    46    68    67   ar
    47    72    71   ar
    48    63    62    1
    49    63    66    1
    50    63    64    1
    51    67    66    1
    52    67    69   ar
    53    71    69   ar
    54    37    40    1
    55    37    36    1
    56    64    65    2
    57    40    41    1
    58    43    41   ar
    59    43    45   ar
    60    41    42   ar
    61    45    44   ar
    62    42    44   ar
    63     6     5    1
    64    80    78    1
    65    77    78    1
    66    77    74    1
    67    78    79    1
    68     5     2    1
    69    73    74    1
    70     2     1    1
    71     2     3    1
    72    74    75    1
    73    12    11    1
    74    75    76    2
    75    35    33    1
    76    11    13    1
    77    11     8    1
    78    27    26   ar
    79    27    25   ar
    80   105   103   ar
    81   105   106   ar
    82     3     4    2
    83   103   101   ar
    84    26    24   ar
    85    25    23   ar
    86    34    33    1
    87    33    32    1
    88     7     8    1
    89   107   106    1
    90   106   104   ar
    91    96    97    1
    92     8     9    1
    93   101   100    1
    94   101   102   ar
    95    23    21   ar
    96    23    22   ar
    97    24    21   ar
    98   100    97    1
    99    32    29    1
   100    21    19   ar
   101     9    10    2
   102    31    30    2
   103    97    98    1
   104    22    20   ar
   105    29    30    1
   106    29    28    1
   107   104   102   ar
   108    19    20   ar
   109    19    18    1
   110    98    99    2
   111    18    15    1
   112    17    16    2
   113    15    16    1
   114    15    14    1
