@<TRIPOS>MOLECULE
tmp/1h2sA00.pdb
 150 141 0 0 0
SMALL
GASTEIGER

@<TRIPOS>ATOM
      1  N         28.0460    3.8890   -0.1440 N.3    32  GLY32      -0.1210
      2  CA        27.9560    5.3300   -0.0290 C.3    32  GLY32       0.1956
      3  C         27.0220    5.7520    1.0880 C.2    32  GLY32       0.2611
      4  O         27.2180    6.8050    1.6920 O.2    32  GLY32      -0.2717
      5  N         26.0110    4.9290    1.3600 N.am   33  GLU33      -0.1979
      6  CA        25.0290    5.2040    2.4070 C.3    33  GLU33       0.1602
      7  C         25.4630    4.6350    3.7620 C.2    33  GLU33       0.2287
      8  O         25.0080    5.0910    4.8140 O.2    33  GLU33      -0.2864
      9  CB        23.6730    4.5820    2.0430 C.3    33  GLU33       0.0415
     10  CG        23.1180    4.9680    0.6810 C.3    33  GLU33       0.1163
     11  CD        21.8310    4.2200    0.3450 C.2    33  GLU33       0.3649
     12  OE1       20.8240    4.3650    1.0820 O.co2  33  GLU33      -0.2457
     13  OE2       21.8290    3.4810   -0.6670 O.co2  33  GLU33      -0.2457
     14  N         28.0360    4.8020    5.9910 N.3    35  ARG35      -0.1231
     15  CA        28.4080    5.6960    7.0870 C.3    35  ARG35       0.1694
     16  C         27.1960    6.3430    7.7650 C.2    35  ARG35       0.2592
     17  O         27.1860    6.5570    8.9720 O.2    35  ARG35      -0.2718
     18  CB        29.3250    6.8120    6.5810 C.3    35  ARG35       0.0321
     19  CG        30.7290    6.3800    6.2040 C.3    35  ARG35       0.0489
     20  CD        31.4880    7.5590    5.5970 C.3    35  ARG35       0.2205
     21  NE        30.6870    8.2190    4.5670 N.pl3  35  ARG35      -0.0865
     22  CZ        31.1110    9.2180    3.7960 C.cat  35  ARG35       0.5346
     23  NH1       32.3440    9.6920    3.9220 N.pl3  35  ARG35       0.1354
     24  NH2       30.2910    9.7510    2.9000 N.pl3  35  ARG35       0.1354
     25  N         26.1840    6.6590    6.9670 N.am   36  TYR36      -0.1962
     26  CA        24.9770    7.2980    7.4700 C.3    36  TYR36       0.1771
     27  C         24.2330    6.4000    8.4490 C.2    36  TYR36       0.2619
     28  O         23.8810    6.8220    9.5540 O.2    36  TYR36      -0.2715
     29  CB        24.0850    7.6770    6.2920 C.3    36  TYR36       0.0574
     30  CG        24.6760    8.7950    5.4440 C.ar   36  TYR36      -0.0198
     31  CD1       24.5740   10.1260    5.8470 C.ar   36  TYR36      -0.0009
     32  CD2       25.3590    8.5190    4.2530 C.ar   36  TYR36      -0.0009
     33  CE1       25.1300   11.1600    5.0920 C.ar   36  TYR36       0.0417
     34  CE2       25.9300    9.5550    3.4860 C.ar   36  TYR36       0.0417
     35  CZ        25.8060   10.8720    3.9180 C.ar   36  TYR36       0.1957
     36  OH        26.3560   11.9160    3.2010 O.3    36  TYR36      -0.2866
     37  N         23.9990    5.1560    8.0420 N.am   37  TYR37      -0.1974
     38  CA        23.2960    4.2120    8.8970 C.3    37  TYR37       0.1639
     39  C         24.1050    3.8940   10.1470 C.2    37  TYR37       0.2290
     40  O         23.5500    3.7900   11.2460 O.2    37  TYR37      -0.2864
     41  CB        22.9950    2.9160    8.1220 C.3    37  TYR37       0.0560
     42  CG        21.9450    3.0830    7.0510 C.ar   37  TYR37      -0.0198
     43  CD1       20.5920    3.0080    7.3630 C.ar   37  TYR37      -0.0009
     44  CD2       22.3070    3.3490    5.7220 C.ar   37  TYR37      -0.0009
     45  CE1       19.6220    3.1910    6.3920 C.ar   37  TYR37       0.0417
     46  CE2       21.3380    3.5370    4.7430 C.ar   37  TYR37       0.0417
     47  CZ        19.9960    3.4550    5.0920 C.ar   37  TYR37       0.1957
     48  OH        19.0250    3.6330    4.1430 O.3    37  TYR37      -0.2866
     49  N         23.8030    6.7760   12.6410 N.3    40  LEU40      -0.1245
     50  CA        22.5060    6.7860   13.3240 C.3    40  LEU40       0.1561
     51  C         22.4790    5.7370   14.4340 C.2    40  LEU40       0.2260
     52  O         21.9720    5.9870   15.5400 O.2    40  LEU40      -0.2867
     53  CB        21.3880    6.5090   12.3220 C.3    40  LEU40       0.0270
     54  CG        21.0790    7.6120   11.3000 C.3    40  LEU40       0.0019
     55  CD1       19.8950    7.1680   10.4560 C.3    40  LEU40       0.0001
     56  CD2       20.7660    8.9470   12.0180 C.3    40  LEU40       0.0001
     57  N         26.7470   13.7040   10.9730 N.3    86  PHE86      -0.1241
     58  CA        25.7610   13.2410    9.9930 C.3    86  PHE86       0.1605
     59  C         25.3410   14.4300    9.1130 C.2    86  PHE86       0.2264
     60  O         25.3220   14.3500    7.8770 O.2    86  PHE86      -0.2867
     61  CB        24.5670   12.6430   10.7540 C.3    86  PHE86       0.0534
     62  CG        23.5230   11.9860    9.8680 C.ar   86  PHE86      -0.0203
     63  CD1       22.6620   12.7530    9.0870 C.ar   86  PHE86      -0.0042
     64  CD2       23.4280   10.5900    9.8160 C.ar   86  PHE86      -0.0042
     65  CE1       21.7030   12.1370    8.2470 C.ar   86  PHE86      -0.0003
     66  CE2       22.4800    9.9610    8.9860 C.ar   86  PHE86      -0.0003
     67  CZ        21.6160   10.7330    8.2010 C.ar   86  PHE86      -0.0000
     68  N         28.1080   15.3770    6.7620 N.3    89  LEU89      -0.1231
     69  CA        28.2480   14.4360    5.6590 C.3    89  LEU89       0.1693
     70  C         27.2430   14.7980    4.5520 C.2    89  LEU89       0.2591
     71  O         27.5840   14.7950    3.3770 O.2    89  LEU89      -0.2718
     72  CB        27.9860   13.0060    6.1400 C.3    89  LEU89       0.0284
     73  CG        29.1280   12.3120    6.8700 C.3    89  LEU89       0.0019
     74  CD1       28.6400   10.9740    7.4350 C.3    89  LEU89       0.0001
     75  CD2       30.3080   12.1110    5.9040 C.3    89  LEU89       0.0001
     76  N         26.0070   15.1070    4.9310 N.am   90  LEU90      -0.1980
     77  CA        25.0120   15.4880    3.9320 C.3    90  LEU90       0.1596
     78  C         25.4230   16.7770    3.2310 C.2    90  LEU90       0.2287
     79  O         25.2400   16.9140    2.0140 O.2    90  LEU90      -0.2864
     80  CB        23.6540   15.6880    4.5780 C.3    90  LEU90       0.0297
     81  CG        22.9540   14.4390    5.0960 C.3    90  LEU90       0.0022
     82  CD1       21.6400   14.8870    5.7300 C.3    90  LEU90       0.0001
     83  CD2       22.7060   13.4240    3.9490 C.3    90  LEU90       0.0001
     84  N         28.4010   17.7960    2.7720 N.3    92  GLY92      -0.1225
     85  CA        29.6010   17.5610    1.9780 C.3    92  GLY92       0.1811
     86  C         30.8000   18.3540    2.4630 C.2    92  GLY92       0.2280
     87  O         31.5800   18.8720    1.6690 O.2    92  GLY92      -0.2866
     88  N         24.8950   19.8730   -3.5620 N.3   152  ARG152     -0.1245
     89  CA        24.5770   18.4580   -3.6820 C.3   152  ARG152      0.1563
     90  C         23.2810   18.3490   -4.4760 C.2   152  ARG152      0.2260
     91  O         22.7570   19.3550   -4.9600 O.2   152  ARG152     -0.2867
     92  CB        24.3730   17.8460   -2.2820 C.3   152  ARG152      0.0307
     93  CG        25.4880   18.1280   -1.2560 C.3   152  ARG152      0.0489
     94  CD        26.7930   17.4660   -1.6290 C.3   152  ARG152      0.2205
     95  NE        26.6500   16.0240   -1.8210 N.pl3 152  ARG152     -0.0865
     96  CZ        26.7870   15.1150   -0.8610 C.cat 152  ARG152      0.5346
     97  NH1       27.0720   15.4760    0.3870 N.pl3 152  ARG152      0.1354
     98  NH2       26.6640   13.8290   -1.1550 N.pl3 152  ARG152      0.1354
     99  N         19.4080   15.6100   -1.5050 N.3   156  ILE156     -0.1245
    100  CA        20.3260   15.7500   -0.3800 C.3   156  ILE156      0.1561
    101  C         20.1200   17.0960    0.3080 C.2   156  ILE156      0.2260
    102  O         20.0510   17.1780    1.5420 O.2   156  ILE156     -0.2867
    103  CB        21.8020   15.6030   -0.8510 C.3   156  ILE156      0.0252
    104  CG1       22.0600   14.1420   -1.2370 C.3   156  ILE156      0.0019
    105  CG2       22.7760   16.0460    0.2570 C.3   156  ILE156      0.0019
    106  CD1       23.4620   13.8790   -1.7860 C.3   156  ILE156      0.0001
    107  N         16.9100   17.0030    2.2460 N.3   159  LEU159     -0.1245
    108  CA        17.0540   16.2610    3.4830 C.3   159  LEU159      0.1561
    109  C         17.8630   17.0650    4.5130 C.2   159  LEU159      0.2260
    110  O         17.5240   17.1180    5.7060 O.2   159  LEU159     -0.2867
    111  CB        17.7580   14.9290    3.2090 C.3   159  LEU159      0.0270
    112  CG        18.0080   14.0560    4.4560 C.3   159  LEU159      0.0019
    113  CD1       16.6860   13.8470    5.2110 C.3   159  LEU159      0.0001
    114  CD2       18.6050   12.6940    4.0530 C.3   159  LEU159      0.0001
    115  N         15.5080   10.5980    8.1050 N.3   212  ALA212     -0.1231
    116  CA        16.5530   10.2070    7.1570 C.3   212  ALA212      0.1694
    117  C         16.1800    8.8820    6.4740 C.2   212  ALA212      0.2591
    118  O         16.3130    8.7380    5.2530 O.2   212  ALA212     -0.2718
    119  CB        17.8920   10.0630    7.8750 C.3   212  ALA212      0.0304
    120  N         15.7310    7.9100    7.2640 N.am  213  LEU213     -0.1980
    121  CA        15.3280    6.6220    6.7120 C.3   213  LEU213      0.1596
    122  C         14.2160    6.7800    5.6720 C.2   213  LEU213      0.2287
    123  O         14.2170    6.1050    4.6430 O.2   213  LEU213     -0.2864
    124  CB        14.8470    5.6950    7.8270 C.3   213  LEU213      0.0297
    125  CG        15.8280    4.6190    8.3000 C.3   213  LEU213      0.0022
    126  CD1       17.1170    5.2500    8.8260 C.3   213  LEU213      0.0001
    127  CD2       15.1330    3.7880    9.3760 C.3   213  LEU213      0.0001
    128  N         15.7330    7.8830    2.3290 N.3   216  ALA216     -0.1245
    129  CA        16.6730    6.9610    1.6880 C.3   216  ALA216      0.1562
    130  C         16.3010    6.4970    0.2820 C.2   216  ALA216      0.2260
    131  O         17.0950    6.6390   -0.6470 O.2   216  ALA216     -0.2867
    132  CB        16.9040    5.7430    2.5890 C.3   216  ALA216      0.0290
    133  N         16.4550    9.2280   -2.3630 N.3   219  LEU219     -0.1245
    134  CA        17.8420    9.5820   -2.6650 C.3   219  LEU219      0.1561
    135  C         18.4940    8.5590   -3.5880 C.2   219  LEU219      0.2260
    136  O         19.3170    8.9190   -4.4250 O.2   219  LEU219     -0.2867
    137  CB        18.6600    9.7100   -1.3740 C.3   219  LEU219      0.0270
    138  CG        18.3300   10.9540   -0.5330 C.3   219  LEU219      0.0019
    139  CD1       19.0900   10.9250    0.7770 C.3   219  LEU219      0.0001
    140  CD2       18.6950   12.2050   -1.3220 C.3   219  LEU219      0.0001
    141  N         19.9510    8.8570   -8.1070 N.3   223  HIS223     -0.1241
    142  CA        21.1590    8.4080   -8.7910 C.3   223  HIS223      0.1621
    143  C         20.8670    7.3610   -9.8460 C.2   223  HIS223      0.2264
    144  O         21.7870    6.7240  -10.3600 O.2   223  HIS223     -0.2867
    145  CB        22.1670    7.8410   -7.7820 C.3   223  HIS223      0.0745
    146  CG        22.8590    8.8850   -6.9730 C.ar  223  HIS223      0.0817
    147  ND1       23.7490    9.7890   -7.5200 N.ar  223  HIS223     -0.2268
    148  CD2       22.7700    9.2000   -5.6560 C.ar  223  HIS223      0.1154
    149  CE1       24.1720   10.6140   -6.5780 C.ar  223  HIS223      0.1986
    150  NE2       23.5950   10.2790   -5.4420 N.ar  223  HIS223     -0.2212
@<TRIPOS>BOND
     1   144   143    2
     2   143   142    1
     3   142   141    1
     4   142   145    1
     5   145   146    1
     6   147   146   ar
     7   147   149   ar
     8   146   148   ar
     9   149   150   ar
    10   148   150   ar
    11    91    90    2
    12    90    89    1
    13   136   135    2
    14    89    88    1
    15    89    92    1
    16   135   134    1
    17   134   133    1
    18   134   137    1
    19    92    93    1
    20    95    94    1
    21    95    96    2
    22   106   104    1
    23    94    93    1
    24    99   100    1
    25   137   138    1
    26   140   138    1
    27   104   103    1
    28    98    96    1
    29    96    97    1
    30   103   100    1
    31   103   105    1
    32    13    11   ar
    33   131   130    2
    34   138   139    1
    35   100   101    1
    36     1     2    1
    37     2     3    1
    38   130   129    1
    39   101   102    2
    40    11    10    1
    41    11    12   ar
    42    10     9    1
    43     3     5   am
    44     3     4    2
    45     5     6    1
    46    87    86    2
    47   129   128    1
    48   129   132    1
    49    85    86    1
    50    85    84    1
    51    79    78    2
    52     9     6    1
    53   107   108    1
    54     6     7    1
    55    24    22    1
    56    36    35    1
    57   111   108    1
    58   111   112    1
    59    78    77    1
    60    71    70    2
    61   108   109    1
    62    34    35   ar
    63    34    32   ar
    64     7     8    2
    65    22    23    1
    66    22    21    2
    67    35    33   ar
    68    77    80    1
    69    77    76    1
    70    83    81    1
    71   114   112    1
    72    48    47    1
    73    32    30   ar
    74   112   113    1
    75   109   110    2
    76    70    76   am
    77    70    69    1
    78    21    20    1
    79    80    81    1
    80   123   122    2
    81    46    47   ar
    82    46    44   ar
    83    47    45   ar
    84    33    31   ar
    85    81    82    1
    86   118   117    2
    87    30    31   ar
    88    30    29    1
    89    20    19    1
    90    69    72    1
    91    69    68    1
    92   122   121    1
    93    44    42   ar
    94    75    73    1
    95    14    15    1
    96    72    73    1
    97    19    18    1
    98    29    26    1
    99    45    43   ar
   100   117   116    1
   101   117   120   am
   102    18    15    1
   103   121   120    1
   104   121   124    1
   105    73    74    1
   106    25    26    1
   107    25    16   am
   108    42    43   ar
   109    42    41    1
   110    15    16    1
   111   116   119    1
   112   116   115    1
   113    26    27    1
   114    16    17    2
   115   124   125    1
   116    60    59    2
   117    37    27   am
   118    37    38    1
   119    41    38    1
   120    67    65   ar
   121    67    66   ar
   122    65    63   ar
   123   125   126    1
   124   125   127    1
   125    27    28    2
   126    38    39    1
   127    66    64   ar
   128    63    62   ar
   129    59    58    1
   130    64    62   ar
   131    62    61    1
   132    58    61    1
   133    58    57    1
   134    39    40    2
   135    55    54    1
   136    54    56    1
   137    54    53    1
   138    53    50    1
   139    49    50    1
   140    50    51    1
   141    51    52    2
