@<TRIPOS>MOLECULE
tmp/1h2uD01.pdb
 164 159 0 0 0
SMALL
GASTEIGER

@<TRIPOS>ATOM
      1  N         30.9200   32.4480   59.7290 N.3    16  TYR16      -0.1241
      2  CA        31.0430   32.2260   61.1620 C.3    16  TYR16       0.1605
      3  C         32.1690   33.0420   61.7790 C.2    16  TYR16       0.2264
      4  O         33.2440   33.1810   61.1990 O.2    16  TYR16      -0.2867
      5  CB        31.3100   30.7560   61.4750 C.3    16  TYR16       0.0534
      6  CG        31.4850   30.5210   62.9580 C.ar   16  TYR16      -0.0201
      7  CD1       30.3840   30.2870   63.7790 C.ar   16  TYR16      -0.0009
      8  CD2       32.7460   30.5910   63.5520 C.ar   16  TYR16      -0.0009
      9  CE1       30.5290   30.1270   65.1540 C.ar   16  TYR16       0.0417
     10  CE2       32.9050   30.4350   64.9300 C.ar   16  TYR16       0.0417
     11  CZ        31.7890   30.2000   65.7240 C.ar   16  TYR16       0.1957
     12  OH        31.9300   30.0160   67.0860 O.3    16  TYR16      -0.2866
     13  N         33.8550   33.6380   65.8220 N.3    18  ASP18      -0.1239
     14  CA        33.8450   33.3210   67.2450 C.3    18  ASP18       0.1674
     15  C         33.4710   34.5930   68.0040 C.2    18  ASP18       0.2266
     16  O         34.2390   35.5570   68.0270 O.2    18  ASP18      -0.2867
     17  CB        35.2340   32.8450   67.6670 C.3    18  ASP18       0.1410
     18  CG        35.2990   32.4220   69.1160 C.2    18  ASP18       0.3668
     19  OD1       34.3300   32.6730   69.8690 O.co2  18  ASP18      -0.2456
     20  OD2       36.3370   31.8390   69.5030 O.co2  18  ASP18      -0.2456
     21  N         42.3140   33.8140   60.6990 N.3    32  LEU32      -0.1245
     22  CA        41.6680   32.7880   59.8850 C.3    32  LEU32       0.1561
     23  C         42.3940   32.5330   58.5640 C.2    32  LEU32       0.2260
     24  O         42.4900   31.3860   58.1110 O.2    32  LEU32      -0.2867
     25  CB        40.2140   33.1850   59.5940 C.3    32  LEU32       0.0270
     26  CG        39.2540   33.1780   60.7890 C.3    32  LEU32       0.0019
     27  CD1       37.9830   33.9320   60.4380 C.3    32  LEU32       0.0001
     28  CD2       38.9450   31.7390   61.1850 C.3    32  LEU32       0.0001
     29  N         37.8590   23.6820   62.2000 N.3    39  TYR39      -0.1241
     30  CA        36.7950   23.3280   63.1210 C.3    39  TYR39       0.1605
     31  C         36.0390   22.2660   62.3190 C.2    39  TYR39       0.2264
     32  O         35.7960   22.4500   61.1170 O.2    39  TYR39      -0.2867
     33  CB        35.8770   24.5320   63.3870 C.3    39  TYR39       0.0534
     34  CG        34.4800   24.1600   63.8740 C.ar   39  TYR39      -0.0201
     35  CD1       34.2400   23.8320   65.2120 C.ar   39  TYR39      -0.0009
     36  CD2       33.4000   24.1220   62.9850 C.ar   39  TYR39      -0.0009
     37  CE1       32.9570   23.4770   65.6530 C.ar   39  TYR39       0.0417
     38  CE2       32.1220   23.7670   63.4120 C.ar   39  TYR39       0.0417
     39  CZ        31.9080   23.4480   64.7460 C.ar   39  TYR39       0.1957
     40  OH        30.6440   23.1000   65.1680 O.3    39  TYR39      -0.2866
     41  N         31.8490   17.8120   68.0050 N.3    79  PHE79      -0.1241
     42  CA        32.7410   18.6530   67.2100 C.3    79  PHE79       0.1605
     43  C         34.1800   18.5400   67.7010 C.2    79  PHE79       0.2264
     44  O         34.4360   17.9940   68.7720 O.2    79  PHE79      -0.2867
     45  CB        32.2800   20.1240   67.2460 C.3    79  PHE79       0.0534
     46  CG        32.6780   20.8640   68.5040 C.ar   79  PHE79      -0.0203
     47  CD1       33.8500   21.6170   68.5450 C.ar   79  PHE79      -0.0042
     48  CD2       31.9000   20.7780   69.6530 C.ar   79  PHE79      -0.0042
     49  CE1       34.2400   22.2700   69.7080 C.ar   79  PHE79      -0.0003
     50  CE2       32.2820   21.4260   70.8250 C.ar   79  PHE79      -0.0003
     51  CZ        33.4530   22.1730   70.8550 C.ar   79  PHE79      -0.0000
     52  N         38.6020   20.1350   66.8140 N.3    81  PHE81      -0.1241
     53  CA        39.5100   21.0210   66.1050 C.3    81  PHE81       0.1605
     54  C         40.6540   20.1610   65.5960 C.2    81  PHE81       0.2264
     55  O         41.1750   19.3390   66.3350 O.2    81  PHE81      -0.2867
     56  CB        40.0720   22.0980   67.0340 C.3    81  PHE81       0.0534
     57  CG        39.0520   23.0790   67.5210 C.ar   81  PHE81      -0.0203
     58  CD1       38.5880   23.0270   68.8380 C.ar   81  PHE81      -0.0042
     59  CD2       38.5690   24.0800   66.6760 C.ar   81  PHE81      -0.0042
     60  CE1       37.6510   23.9690   69.3120 C.ar   81  PHE81      -0.0003
     61  CE2       37.6390   25.0230   67.1360 C.ar   81  PHE81      -0.0003
     62  CZ        37.1780   24.9680   68.4610 C.ar   81  PHE81      -0.0000
     63  N         31.1970   18.9690   58.4350 N.3   108  ARG108     -0.1245
     64  CA        31.4740   20.2950   57.8970 C.3   108  ARG108      0.1563
     65  C         32.7420   20.8910   58.5110 C.2   108  ARG108      0.2260
     66  O         32.9060   20.9000   59.7270 O.2   108  ARG108     -0.2867
     67  CB        30.2730   21.2130   58.1580 C.3   108  ARG108      0.0307
     68  CG        30.5610   22.6870   57.9230 C.3   108  ARG108      0.0489
     69  CD        29.3340   23.5740   58.1600 C.3   108  ARG108      0.2205
     70  NE        29.6800   24.9970   58.1300 N.pl3 108  ARG108     -0.0865
     71  CZ        30.3290   25.6300   59.1050 C.cat 108  ARG108      0.5346
     72  NH1       30.6980   24.9690   60.1960 N.pl3 108  ARG108      0.1354
     73  NH2       30.6280   26.9190   58.9830 N.pl3 108  ARG108      0.1354
     74  N         35.5870   24.1950   58.8160 N.3   110  ASP110     -0.1225
     75  CA        35.6530   25.6470   58.7300 C.3   110  ASP110      0.1805
     76  C         36.9630   26.1470   59.3040 C.2   110  ASP110      0.2598
     77  O         37.4810   25.5810   60.2700 O.2   110  ASP110     -0.2718
     78  CB        34.4830   26.2750   59.4970 C.3   110  ASP110      0.1424
     79  CG        34.4400   27.7850   59.3570 C.2   110  ASP110      0.3668
     80  OD1       34.5670   28.2810   58.2150 O.co2 110  ASP110     -0.2456
     81  OD2       34.2760   28.4790   60.3830 O.co2 110  ASP110     -0.2456
     82  N         37.5080   27.2060   58.7130 N.am  111  TRP111     -0.1962
     83  CA        38.7630   27.7490   59.2140 C.3   111  TRP111      0.1771
     84  C         38.5460   28.2280   60.6370 C.2   111  TRP111      0.2619
     85  O         37.4480   28.6690   61.0000 O.2   111  TRP111     -0.2715
     86  CB        39.2490   28.9050   58.3430 C.3   111  TRP111      0.0590
     87  CG        39.7790   28.4680   57.0060 C.ar  111  TRP111      0.0006
     88  CD1       39.2090   28.7000   55.7810 C.ar  111  TRP111      0.0946
     89  CD2       40.9920   27.7380   56.7480 C.ar  111  TRP111      0.0152
     90  NE1       39.9940   28.1630   54.7820 N.ar  111  TRP111     -0.2442
     91  CE2       41.0920   27.5680   55.3480 C.ar  111  TRP111      0.0810
     92  CE3       42.0010   27.2140   57.5630 C.ar  111  TRP111      0.0012
     93  CZ2       42.1620   26.8940   54.7480 C.ar  111  TRP111      0.0191
     94  CZ3       43.0730   26.5410   56.9590 C.ar  111  TRP111      0.0001
     95  CH2       43.1410   26.3900   55.5680 C.ar  111  TRP111      0.0015
     96  N         39.5850   28.1150   61.4560 N.am  112  ASP112     -0.1971
     97  CA        39.4760   28.5500   62.8380 C.3   112  ASP112      0.1709
     98  C         40.6640   29.4150   63.2290 C.2   112  ASP112      0.2293
     99  O         41.7870   29.1490   62.8250 O.2   112  ASP112     -0.2864
    100  CB        39.3610   27.3410   63.7590 C.3   112  ASP112      0.1436
    101  CG        39.0260   27.7380   65.1740 C.2   112  ASP112      0.3671
    102  OD1       39.9690   28.0000   65.9510 O.co2 112  ASP112     -0.2456
    103  OD2       37.8180   27.8080   65.4910 O.co2 112  ASP112     -0.2456
    104  N         37.8540   26.7210   74.5630 N.3   119  ARG119     -0.1245
    105  CA        37.2220   26.5820   73.2610 C.3   119  ARG119      0.1563
    106  C         36.7390   25.1690   72.9530 C.2   119  ARG119      0.2260
    107  O         35.9130   24.9850   72.0590 O.2   119  ARG119     -0.2867
    108  CB        38.1920   27.0580   72.1800 C.3   119  ARG119      0.0307
    109  CG        38.5300   28.5250   72.3300 C.3   119  ARG119      0.0489
    110  CD        37.7900   29.3470   71.3070 C.3   119  ARG119      0.2205
    111  NE        38.5180   29.2710   70.0560 N.pl3 119  ARG119     -0.0865
    112  CZ        38.0020   28.8910   68.9000 C.cat 119  ARG119      0.5346
    113  NH1       36.7270   28.5480   68.8090 N.pl3 119  ARG119      0.1354
    114  NH2       38.7830   28.8410   67.8380 N.pl3 119  ARG119      0.1354
    115  N         34.8620   23.4470   74.7340 N.3   121  TYR121     -0.1241
    116  CA        33.5830   23.2120   75.3850 C.3   121  TYR121      0.1605
    117  C         32.3750   23.7800   74.6660 C.2   121  TYR121      0.2264
    118  O         32.4290   24.8670   74.0820 O.2   121  TYR121     -0.2867
    119  CB        33.6240   23.7650   76.8150 C.3   121  TYR121      0.0534
    120  CG        34.6930   23.1380   77.6830 C.ar  121  TYR121     -0.0201
    121  CD1       35.7550   23.8950   78.1750 C.ar  121  TYR121     -0.0009
    122  CD2       34.6450   21.7810   78.0080 C.ar  121  TYR121     -0.0009
    123  CE1       36.7440   23.3170   78.9690 C.ar  121  TYR121      0.0417
    124  CE2       35.6280   21.1930   78.8030 C.ar  121  TYR121      0.0417
    125  CZ        36.6750   21.9670   79.2760 C.ar  121  TYR121      0.1957
    126  OH        37.6630   21.3840   80.0350 O.3   121  TYR121     -0.2866
    127  N         29.0450   25.7280   74.1100 N.3   123  ARG123     -0.1245
    128  CA        28.5790   26.9600   74.7300 C.3   123  ARG123      0.1563
    129  C         27.0620   26.9890   74.9230 C.2   123  ARG123      0.2260
    130  O         26.4780   28.0520   75.1340 O.2   123  ARG123     -0.2867
    131  CB        29.0220   28.1490   73.8800 C.3   123  ARG123      0.0307
    132  CG        30.5250   28.2790   73.8060 C.3   123  ARG123      0.0489
    133  CD        30.9490   29.2080   72.7020 C.3   123  ARG123      0.2205
    134  NE        32.3780   29.4860   72.7810 N.pl3 123  ARG123     -0.0865
    135  CZ        33.0350   30.2650   71.9320 C.cat 123  ARG123      0.5346
    136  NH1       32.3890   30.8440   70.9280 N.pl3 123  ARG123      0.1354
    137  NH2       34.3350   30.4740   72.0960 N.pl3 123  ARG123      0.1354
    138  N         26.6610   21.6980   72.4590 N.3   129  GLN129     -0.1231
    139  CA        26.7640   22.7610   71.4730 C.3   129  GLN129      0.1698
    140  C         25.4600   23.5310   71.3850 C.2   129  GLN129      0.2592
    141  O         24.3830   22.9860   71.6430 O.2   129  GLN129     -0.2718
    142  CB        27.1110   22.1980   70.0850 C.3   129  GLN129      0.0381
    143  CG        28.5680   21.8010   69.8980 C.3   129  GLN129      0.0905
    144  CD        28.9640   21.7290   68.4290 C.2   129  GLN129      0.2608
    145  OE1       28.8520   20.6820   67.7860 O.2   129  GLN129     -0.2717
    146  NE2       29.4170   22.8600   67.8870 N.am  129  GLN129     -0.0878
    147  N         25.5630   24.8030   71.0140 N.am  130  VAL130     -0.1966
    148  CA        24.3950   25.6610   70.8760 C.3   130  VAL130      0.1727
    149  C         23.3690   25.0550   69.9080 C.2   130  VAL130      0.2616
    150  O         22.1660   25.1330   70.1500 O.2   130  VAL130     -0.2715
    151  CB        24.8080   27.0740   70.3750 C.3   130  VAL130      0.0290
    152  CG1       23.5780   27.9580   70.2220 C.3   130  VAL130      0.0023
    153  CG2       25.7920   27.7030   71.3480 C.3   130  VAL130      0.0023
    154  N         23.8500   24.4550   68.8200 N.am  131  ARG131     -0.1977
    155  CA        22.9830   23.8370   67.8090 C.3   131  ARG131      0.1597
    156  C         22.0080   22.8040   68.3750 C.2   131  ARG131      0.2287
    157  O         20.8460   22.7390   67.9800 O.2   131  ARG131     -0.2864
    158  CB        23.8270   23.1360   66.7410 C.3   131  ARG131      0.0334
    159  CG        24.4320   24.0450   65.7000 C.3   131  ARG131      0.0492
    160  CD        25.5810   23.3570   64.9670 C.3   131  ARG131      0.2205
    161  NE        25.8600   23.9760   63.6730 N.pl3 131  ARG131     -0.0865
    162  CZ        26.1390   25.2650   63.4880 C.cat 131  ARG131      0.5346
    163  NH1       26.1810   26.1010   64.5200 N.pl3 131  ARG131      0.1354
    164  NH2       26.3740   25.7220   62.2620 N.pl3 131  ARG131      0.1354
@<TRIPOS>BOND
     1    93    91   ar
     2    93    95   ar
     3    90    91   ar
     4    90    88   ar
     5    91    89   ar
     6    95    94   ar
     7    88    87   ar
     8    89    87   ar
     9    89    92   ar
    10    94    92   ar
    11    87    86    1
    12    64    67    1
    13    64    63    1
    14    64    65    1
    15    68    67    1
    16    68    69    1
    17    24    23    2
    18    70    69    1
    19    70    71    2
    20    80    79   ar
    21    86    83    1
    22    65    66    2
    23    23    22    1
    24    82    83    1
    25    82    76   am
    26    75    74    1
    27    75    76    1
    28    75    78    1
    29    73    71    1
    30    71    72    1
    31    83    84    1
    32    76    77    2
    33    79    78    1
    34    79    81   ar
    35    25    22    1
    36    25    26    1
    37     1     2    1
    38    22    21    1
    39    27    26    1
    40    84    85    2
    41    84    96   am
    42    26    28    1
    43    32    31    2
    44     2     5    1
    45     2     3    1
    46     4     3    2
    47    96    97    1
    48     5     6    1
    49    29    30    1
    50   164   162    1
    51    31    30    1
    52    99    98    2
    53    97    98    1
    54    97   100    1
    55     6     8   ar
    56     6     7   ar
    57    36    38   ar
    58    36    34   ar
    59    30    33    1
    60    33    34    1
    61    38    39   ar
    62   162   161    2
    63   162   163    1
    64     8    10   ar
    65   161   160    1
    66   100   101    1
    67     7     9   ar
    68    34    35   ar
    69    39    40    1
    70    39    37   ar
    71    10    11   ar
    72   160   159    1
    73     9    11   ar
    74   101   103   ar
    75   101   102   ar
    76    35    37   ar
    77    54    53    1
    78    54    55    2
    79   159   158    1
    80    11    12    1
    81    13    14    1
    82    53    52    1
    83    53    56    1
    84    59    61   ar
    85    59    57   ar
    86   158   155    1
    87    56    57    1
    88    61    62   ar
    89    42    45    1
    90    42    43    1
    91    42    41    1
    92    14    17    1
    93    14    15    1
    94    45    46    1
    95    57    58   ar
    96    17    18    1
    97    43    44    2
    98   145   144    2
    99   155   156    1
   100   155   154    1
   101   114   112    1
   102   146   144   am
   103   157   156    2
   104    15    16    2
   105   144   143    1
   106    62    60   ar
   107    46    47   ar
   108    46    48   ar
   109    47    49   ar
   110   113   112    1
   111   154   149   am
   112    58    60   ar
   113   112   111    2
   114    18    20   ar
   115    18    19   ar
   116    48    50   ar
   117    49    51   ar
   118   143   142    1
   119   149   150    2
   120   149   148    1
   121   111   110    1
   122   142   139    1
   123   152   151    1
   124   151   148    1
   125   151   153    1
   126    50    51   ar
   127   148   147    1
   128   136   135    1
   129   147   140   am
   130   110   109    1
   131   140   139    1
   132   140   141    2
   133   139   138    1
   134   135   137    1
   135   135   134    2
   136   107   106    2
   137   108   109    1
   138   108   105    1
   139   133   134    1
   140   133   132    1
   141   106   105    1
   142   105   104    1
   143   132   131    1
   144   131   128    1
   145   118   117    2
   146   127   128    1
   147   117   116    1
   148   128   129    1
   149   115   116    1
   150   129   130    2
   151   116   119    1
   152   119   120    1
   153   120   122   ar
   154   120   121   ar
   155   122   124   ar
   156   121   123   ar
   157   124   125   ar
   158   123   125   ar
   159   125   126    1
