@<TRIPOS>MOLECULE
tmp/1h2yA00.pdb
 158 151 0 0 0
SMALL
GASTEIGER

@<TRIPOS>ATOM
      1  N         48.8980   42.5990   89.1880 N.3   173  PHE173     -0.1241
      2  CA        48.2940   41.3960   89.7970 C.3   173  PHE173      0.1605
      3  C         49.0950   41.0530   91.0510 C.2   173  PHE173      0.2264
      4  O         49.4760   39.9060   91.2770 O.2   173  PHE173     -0.2867
      5  CB        48.3590   40.2260   88.8200 C.3   173  PHE173      0.0534
      6  CG        47.8330   40.5550   87.4540 C.ar  173  PHE173     -0.0203
      7  CD1       46.5980   41.1900   87.2970 C.ar  173  PHE173     -0.0042
      8  CD2       48.5730   40.2380   86.3250 C.ar  173  PHE173     -0.0042
      9  CE1       46.1190   41.4990   86.0220 C.ar  173  PHE173     -0.0003
     10  CE2       48.1010   40.5440   85.0520 C.ar  173  PHE173     -0.0003
     11  CZ        46.8830   41.1700   84.9020 C.ar  173  PHE173     -0.0000
     12  N         52.3190   32.5040   89.5360 N.3   235  MET235     -0.1245
     13  CA        52.2200   33.7880   90.2340 C.3   235  MET235      0.1570
     14  C         52.0930   33.4820   91.7270 C.2   235  MET235      0.2261
     15  O         51.1250   32.8450   92.1460 O.2   235  MET235     -0.2867
     16  CB        50.9870   34.5410   89.7310 C.3   235  MET235      0.0387
     17  CG        51.0100   34.7830   88.2350 C.3   235  MET235      0.0595
     18  SD        49.3970   35.2170   87.5460 S.3   235  MET235     -0.1393
     19  CE        49.4340   36.9840   87.7600 C.3   235  MET235      0.0692
     20  N         49.5390   30.4490   92.0730 N.3   252  ARG252     -0.1245
     21  CA        48.4920   30.1460   91.1040 C.3   252  ARG252      0.1563
     22  C         49.0370   30.0490   89.6850 C.2   252  ARG252      0.2260
     23  O         50.1270   30.5310   89.3970 O.2   252  ARG252     -0.2867
     24  CB        47.3970   31.2110   91.1760 C.3   252  ARG252      0.0307
     25  CG        46.6590   31.1540   92.5110 C.3   252  ARG252      0.0489
     26  CD        45.5560   32.1770   92.6500 C.3   252  ARG252      0.2205
     27  NE        45.0750   32.2280   94.0310 N.pl3 252  ARG252     -0.0865
     28  CZ        44.0640   31.5140   94.5250 C.cat 252  ARG252      0.5346
     29  NH1       43.3810   30.6640   93.7680 N.pl3 252  ARG252      0.1354
     30  NH2       43.7230   31.6730   95.7950 N.pl3 252  ARG252      0.1354
     31  N         46.8780   30.0710   86.1590 N.3   254  GLY254     -0.1210
     32  CA        45.5920   30.0250   85.4970 C.3   254  GLY254      0.1956
     33  C         44.5610   30.6360   86.4230 C.2   254  GLY254      0.2612
     34  O         44.9060   31.1650   87.4880 O.2   254  GLY254     -0.2717
     35  N         43.2970   30.4550   86.0690 N.am  255  CYS255     -0.1970
     36  CA        42.1910   31.0450   86.8200 C.3   255  CYS255      0.1712
     37  C         41.3330   30.1110   87.6780 C.2   255  CYS255      0.2296
     38  O         40.3500   30.5400   88.2930 O.2   255  CYS255     -0.2864
     39  CB        41.3110   31.8350   85.8530 C.3   255  CYS255      0.0983
     40  SG        42.0170   33.4130   85.3410 S.3   255  CYS255     -0.0798
     41  N         26.9910   36.1240   82.4310 N.3   473  PHE473     -0.1241
     42  CA        28.4560   36.0810   82.4030 C.3   473  PHE473      0.1605
     43  C         28.8010   34.6200   82.0720 C.2   473  PHE473      0.2264
     44  O         29.1140   34.3040   80.9200 O.2   473  PHE473     -0.2867
     45  CB        29.0390   36.5180   83.7490 C.3   473  PHE473      0.0534
     46  CG        30.5410   36.5670   83.7730 C.ar  473  PHE473     -0.0203
     47  CD1       31.2230   37.5830   83.1130 C.ar  473  PHE473     -0.0042
     48  CD2       31.2710   35.6050   84.4690 C.ar  473  PHE473     -0.0042
     49  CE1       32.6190   37.6420   83.1500 C.ar  473  PHE473     -0.0003
     50  CE2       32.6610   35.6560   84.5080 C.ar  473  PHE473     -0.0003
     51  CZ        33.3340   36.6730   83.8490 C.ar  473  PHE473     -0.0000
     52  N         34.5210   31.3090   85.0590 N.3   476  PHE476     -0.1241
     53  CA        35.5170   31.6510   86.0700 C.3   476  PHE476      0.1605
     54  C         35.1110   31.5510   87.5360 C.2   476  PHE476      0.2264
     55  O         35.7260   32.1820   88.4040 O.2   476  PHE476     -0.2867
     56  CB        36.1020   33.0340   85.7190 C.3   476  PHE476      0.0534
     57  CG        36.7270   33.0630   84.3550 C.ar  476  PHE476     -0.0203
     58  CD1       38.0690   32.7170   84.1900 C.ar  476  PHE476     -0.0042
     59  CD2       35.9590   33.3370   83.2210 C.ar  476  PHE476     -0.0042
     60  CE1       38.6430   32.6330   82.9230 C.ar  476  PHE476     -0.0003
     61  CE2       36.5230   33.2540   81.9380 C.ar  476  PHE476     -0.0003
     62  CZ        37.8790   32.8970   81.7920 C.ar  476  PHE476     -0.0000
     63  N         32.6430   32.7180   88.8970 N.3   478  ILE478     -0.1245
     64  CA        32.1030   33.9920   89.3430 C.3   478  ILE478      0.1561
     65  C         30.5760   33.8870   89.4460 C.2   478  ILE478      0.2260
     66  O         29.9220   33.4520   88.5140 O.2   478  ILE478     -0.2867
     67  CB        32.5270   35.1430   88.3940 C.3   478  ILE478      0.0252
     68  CG1       34.0570   35.2970   88.4300 C.3   478  ILE478      0.0019
     69  CG2       31.8490   36.4530   88.8040 C.3   478  ILE478      0.0019
     70  CD1       34.6080   36.3790   87.5310 C.3   478  ILE478      0.0001
     71  N         33.3550   41.1600   79.1120 N.3   554  SER554     -0.1202
     72  CA        34.5300   40.2830   79.1310 C.3   554  SER554      0.2020
     73  C         34.0910   38.8600   78.7430 C.2   554  SER554      0.2618
     74  O         33.6950   38.6400   77.6000 O.2   554  SER554     -0.2717
     75  CB        35.1860   40.3240   80.5100 C.3   554  SER554      0.2103
     76  OG        36.4740   39.7570   80.4470 O.3   554  SER554     -0.2182
     77  N         34.1380   37.9110   79.6770 N.am  555  ASN555     -0.1974
     78  CA        33.6780   36.5550   79.3980 C.3   555  ASN555      0.1688
     79  C         32.1780   36.6660   79.0490 C.2   555  ASN555      0.2292
     80  O         31.6460   35.8730   78.2680 O.2   555  ASN555     -0.2864
     81  CB        33.9200   35.6360   80.6140 C.3   555  ASN555      0.1181
     82  CG        33.2720   34.2730   80.4520 C.2   555  ASN555      0.2629
     83  OD1       33.6680   33.4770   79.5970 O.2   555  ASN555     -0.2716
     84  ND2       32.2770   33.9990   81.2780 N.am  555  ASN555     -0.0877
     85  N         35.9510   38.9210   74.8620 N.3   580  VAL580     -0.1245
     86  CA        36.9840   38.0720   74.2700 C.3   580  VAL580      0.1561
     87  C         36.3380   37.5110   73.0010 C.2   580  VAL580      0.2260
     88  O         35.4180   36.7000   73.0860 O.2   580  VAL580     -0.2867
     89  CB        37.3470   36.8810   75.1960 C.3   580  VAL580      0.0252
     90  CG1       38.5420   36.1030   74.6240 C.3   580  VAL580      0.0019
     91  CG2       37.6190   37.3780   76.6110 C.3   580  VAL580      0.0019
     92  N         47.5320   39.0610   80.0620 N.3   591  ILE591     -0.1245
     93  CA        47.2740   38.0020   81.0370 C.3   591  ILE591      0.1561
     94  C         46.3400   36.9050   80.4820 C.2   591  ILE591      0.2260
     95  O         45.9420   35.9890   81.2150 O.2   591  ILE591     -0.2867
     96  CB        46.6930   38.6140   82.3520 C.3   591  ILE591      0.0252
     97  CG1       46.6810   37.5880   83.4960 C.3   591  ILE591      0.0019
     98  CG2       45.3030   39.1810   82.1030 C.3   591  ILE591      0.0019
     99  CD1       48.0620   37.0370   83.8440 C.3   591  ILE591      0.0001
    100  N         46.2880   33.1040   81.3570 N.3   594  ALA594     -0.1231
    101  CA        45.6440   32.6090   82.5740 C.3   594  ALA594      0.1694
    102  C         44.2460   32.0370   82.3580 C.2   594  ALA594      0.2592
    103  O         43.7690   31.2290   83.1720 O.2   594  ALA594     -0.2718
    104  CB        45.5910   33.7260   83.6120 C.3   594  ALA594      0.0304
    105  N         43.6060   32.4030   81.2480 N.am  595  TRP595     -0.1976
    106  CA        42.2390   31.9520   80.9850 C.3   595  TRP595      0.1640
    107  C         42.0740   30.5730   80.3590 C.2   595  TRP595      0.2290
    108  O         40.9380   30.1160   80.1430 O.2   595  TRP595     -0.2864
    109  CB        41.4930   32.9720   80.1100 C.3   595  TRP595      0.0576
    110  CG        41.6700   34.4000   80.5400 C.ar  595  TRP595      0.0006
    111  CD1       41.9930   34.8600   81.7930 C.ar  595  TRP595      0.0946
    112  CD2       41.6360   35.5420   79.6880 C.ar  595  TRP595      0.0152
    113  NE1       42.1810   36.2280   81.7520 N.ar  595  TRP595     -0.2442
    114  CE2       41.9730   36.6700   80.4720 C.ar  595  TRP595      0.0810
    115  CE3       41.3660   35.7250   78.3200 C.ar  595  TRP595      0.0012
    116  CZ2       42.0530   37.9620   79.9320 C.ar  595  TRP595      0.0191
    117  CZ3       41.4410   37.0020   77.7790 C.ar  595  TRP595      0.0001
    118  CH2       41.7860   38.1100   78.5910 C.ar  595  TRP595      0.0015
    119  N         38.7930   28.0880   79.1610 N.3   599  TYR599     -0.1241
    120  CA        38.5410   27.8960   77.7250 C.3   599  TYR599      0.1605
    121  C         39.3220   26.8230   76.9750 C.2   599  TYR599      0.2264
    122  O         38.8610   26.3040   75.9540 O.2   599  TYR599     -0.2867
    123  CB        38.8400   29.2060   77.0010 C.3   599  TYR599      0.0534
    124  CG        38.1410   30.4260   77.5500 C.ar  599  TYR599     -0.0201
    125  CD1       36.7650   30.4130   77.8090 C.ar  599  TYR599     -0.0009
    126  CD2       38.8350   31.6270   77.6870 C.ar  599  TYR599     -0.0009
    127  CE1       36.0890   31.5820   78.1680 C.ar  599  TYR599      0.0417
    128  CE2       38.1850   32.8050   78.0400 C.ar  599  TYR599      0.0417
    129  CZ        36.8010   32.7700   78.2740 C.ar  599  TYR599      0.1957
    130  OH        36.1140   33.9260   78.5240 O.3   599  TYR599     -0.2866
    131  N         43.3880   44.1040   79.9820 N.3   643  ARG643     -0.1231
    132  CA        42.8960   42.8400   80.5240 C.3   643  ARG643      0.1694
    133  C         42.4840   42.0030   79.2940 C.2   643  ARG643      0.2591
    134  O         42.9860   40.8970   79.0880 O.2   643  ARG643     -0.2718
    135  CB        41.7110   43.0630   81.4660 C.3   643  ARG643      0.0321
    136  CG        41.1330   41.7590   82.0460 C.3   643  ARG643      0.0489
    137  CD        42.0870   41.1070   83.0370 C.3   643  ARG643      0.2205
    138  NE        42.3500   41.9900   84.1700 N.pl3 643  ARG643     -0.0865
    139  CZ        41.5960   42.0780   85.2570 C.cat 643  ARG643      0.5346
    140  NH1       40.5060   41.3180   85.3900 N.pl3 643  ARG643      0.1354
    141  NH2       41.9240   42.9510   86.2060 N.pl3 643  ARG643      0.1354
    142  N         41.5870   42.5560   78.4800 N.am  644  VAL644     -0.1980
    143  CA        41.1190   41.9220   77.2470 C.3   644  VAL644      0.1595
    144  C         41.5050   42.9510   76.1790 C.2   644  VAL644      0.2287
    145  O         40.8290   43.9820   76.0040 O.2   644  VAL644     -0.2864
    146  CB        39.5710   41.7070   77.2620 C.3   644  VAL644      0.0276
    147  CG1       39.0750   41.1210   75.9150 C.3   644  VAL644      0.0022
    148  CG2       39.1820   40.7520   78.3860 C.3   644  VAL644      0.0022
    149  N         39.6640   48.0670   81.1210 N.3   680  HIS680     -0.1241
    150  CA        38.6820   47.0050   81.3160 C.3   680  HIS680      0.1621
    151  C         37.4290   47.4820   82.0500 C.2   680  HIS680      0.2264
    152  O         36.3160   47.0560   81.7360 O.2   680  HIS680     -0.2867
    153  CB        39.3210   45.8000   82.0220 C.3   680  HIS680      0.0745
    154  CG        38.5390   44.5330   81.8570 C.ar  680  HIS680      0.0817
    155  ND1       38.2180   44.0160   80.6190 N.ar  680  HIS680     -0.2268
    156  CD2       38.0150   43.6790   82.7670 C.ar  680  HIS680      0.1154
    157  CE1       37.5340   42.8970   80.7750 C.ar  680  HIS680      0.1986
    158  NE2       37.3990   42.6720   82.0690 N.ar  680  HIS680     -0.2212
@<TRIPOS>BOND
     1    87    88    2
     2    87    86    1
     3    86    85    1
     4    86    89    1
     5    90    89    1
     6    89    91    1
     7   147   146    1
     8   122   121    2
     9   145   144    2
    10   144   143    1
    11   121   120    1
    12   123   124    1
    13   123   120    1
    14   143   146    1
    15   143   142    1
    16   146   148    1
    17   124   126   ar
    18   124   125   ar
    19    74    73    2
    20   126   128   ar
    21   120   119    1
    22   117   115   ar
    23   117   118   ar
    24   125   127   ar
    25   128   129   ar
    26   127   129   ar
    27    80    79    2
    28   129   130    1
    29   115   112   ar
    30   142   133   am
    31   118   116   ar
    32    73    72    1
    33    73    77   am
    34    79    78    1
    35   134   133    2
    36    71    72    1
    37    72    75    1
    38   133   132    1
    39    78    77    1
    40    78    81    1
    41    83    82    2
    42   112   114   ar
    43   112   110   ar
    44   116   114   ar
    45   131   132    1
    46    92    93    1
    47   109   110    1
    48   109   106    1
    49   108   107    2
    50   107   106    1
    51    76    75    1
    52    82    81    1
    53    82    84   am
    54   114   113   ar
    55    94    93    1
    56    94    95    2
    57   132   135    1
    58   110   111   ar
    59   155   157   ar
    60   155   154   ar
    61   157   158   ar
    62    44    43    2
    63   106   105    1
    64    93    96    1
    65   149   150    1
    66   105   102   am
    67   150   153    1
    68   150   151    1
    69   100   101    1
    70   135   136    1
    71   152   151    2
    72   113   111   ar
    73    62    61   ar
    74    62    60   ar
    75   154   153    1
    76   154   156   ar
    77    61    59   ar
    78   136   137    1
    79   158   156   ar
    80    43    42    1
    81    98    96    1
    82    96    97    1
    83   102   101    1
    84   102   103    2
    85    42    41    1
    86    42    45    1
    87   101   104    1
    88    60    58   ar
    89   137   138    1
    90    47    49   ar
    91    47    46   ar
    92    49    51   ar
    93    59    57   ar
    94    97    99    1
    95    45    46    1
    96    46    48   ar
    97    51    50   ar
    98   138   139    2
    99    58    57   ar
   100    57    56    1
   101    48    50   ar
   102    11    10   ar
   103    11     9   ar
   104    10     8   ar
   105    52    53    1
   106   139   140    1
   107   139   141    1
   108    40    39    1
   109    32    31    1
   110    32    33    1
   111    56    53    1
   112    39    36    1
   113     9     7   ar
   114    35    33   am
   115    35    36    1
   116    53    54    1
   117     8     6   ar
   118    33    34    2
   119    36    37    1
   120     7     6   ar
   121     6     5    1
   122    70    68    1
   123    54    55    2
   124    18    19    1
   125    18    17    1
   126    37    38    2
   127    17    16    1
   128    67    68    1
   129    67    69    1
   130    67    64    1
   131    66    65    2
   132     5     2    1
   133    63    64    1
   134     1     2    1
   135    64    65    1
   136    23    22    2
   137    12    13    1
   138    22    21    1
   139    16    13    1
   140     2     3    1
   141    13    14    1
   142     3     4    2
   143    21    24    1
   144    21    20    1
   145    24    25    1
   146    14    15    2
   147    25    26    1
   148    26    27    1
   149    29    28    1
   150    27    28    2
   151    28    30    1
