@<TRIPOS>MOLECULE
tmp/1h2zA00.pdb
 103 100 0 0 0
SMALL
GASTEIGER

@<TRIPOS>ATOM
      1  N         43.5540   30.6770   86.7070 N.3   255  CYS255     -0.1235
      2  CA        42.4460   31.2380   87.4840 C.3   255  CYS255      0.1677
      3  C         41.5750   30.2870   88.2980 C.2   255  CYS255      0.2270
      4  O         40.5460   30.7190   88.8420 O.2   255  CYS255     -0.2867
      5  CB        41.5370   32.0550   86.5650 C.3   255  CYS255      0.0956
      6  SG        42.4020   33.4370   85.8100 S.3   255  CYS255     -0.0801
      7  N         27.4310   36.5060   82.8790 N.3   473  TYR473     -0.1241
      8  CA        28.9020   36.4620   82.8950 C.3   473  TYR473      0.1605
      9  C         29.2870   35.0100   82.5700 C.2   473  TYR473      0.2264
     10  O         29.6540   34.7040   81.4320 O.2   473  TYR473     -0.2867
     11  CB        29.4590   36.9370   84.2370 C.3   473  TYR473      0.0534
     12  CG        30.9740   36.9600   84.3050 C.ar  473  TYR473     -0.0201
     13  CD1       31.7200   37.9170   83.6010 C.ar  473  TYR473     -0.0009
     14  CD2       31.6540   36.0350   85.0860 C.ar  473  TYR473     -0.0009
     15  CE1       33.1200   37.9410   83.6790 C.ar  473  TYR473      0.0417
     16  CE2       33.0460   36.0450   85.1850 C.ar  473  TYR473      0.0417
     17  CZ        33.7740   36.9960   84.4830 C.ar  473  TYR473      0.1957
     18  OH        35.1440   37.0120   84.5880 O.3   473  TYR473     -0.2866
     19  N         34.8530   31.5200   85.6380 N.3   476  PHE476     -0.1241
     20  CA        35.8390   31.8700   86.6420 C.3   476  PHE476      0.1605
     21  C         35.4040   31.7760   88.0970 C.2   476  PHE476      0.2264
     22  O         36.0000   32.3950   88.9790 O.2   476  PHE476     -0.2867
     23  CB        36.4090   33.2410   86.2880 C.3   476  PHE476      0.0534
     24  CG        37.1230   33.2500   84.9630 C.ar  476  PHE476     -0.0203
     25  CD1       38.4070   32.7470   84.8470 C.ar  476  PHE476     -0.0042
     26  CD2       36.4700   33.6840   83.8060 C.ar  476  PHE476     -0.0042
     27  CE1       39.0350   32.6630   83.5960 C.ar  476  PHE476     -0.0003
     28  CE2       37.0890   33.6040   82.5610 C.ar  476  PHE476     -0.0003
     29  CZ        38.3690   33.0980   82.4510 C.ar  476  PHE476     -0.0000
     30  N         33.8240   41.5050   79.4960 N.3   554  ALA554     -0.1231
     31  CA        34.9990   40.6310   79.5540 C.3   554  ALA554      0.1694
     32  C         34.6290   39.1930   79.1900 C.2   554  ALA554      0.2592
     33  O         34.3030   38.9300   78.0370 O.2   554  ALA554     -0.2718
     34  CB        35.6250   40.7140   80.9110 C.3   554  ALA554      0.0304
     35  N         34.7050   38.2460   80.1300 N.am  555  ASN555     -0.1974
     36  CA        34.2590   36.8870   79.8250 C.3   555  ASN555      0.1688
     37  C         32.7520   36.9910   79.4810 C.2   555  ASN555      0.2292
     38  O         32.2280   36.1750   78.7460 O.2   555  ASN555     -0.2864
     39  CB        34.4790   35.9710   81.0390 C.3   555  ASN555      0.1181
     40  CG        33.7730   34.6380   80.9020 C.2   555  ASN555      0.2629
     41  OD1       34.1510   33.8010   80.0770 O.2   555  ASN555     -0.2716
     42  ND2       32.7070   34.4470   81.6820 N.am  555  ASN555     -0.0877
     43  N         36.4680   39.2710   75.4490 N.3   580  VAL580     -0.1245
     44  CA        37.5220   38.4350   74.8990 C.3   580  VAL580      0.1561
     45  C         36.8710   37.8770   73.6450 C.2   580  VAL580      0.2260
     46  O         35.9280   37.0830   73.7280 O.2   580  VAL580     -0.2867
     47  CB        37.9060   37.2860   75.8680 C.3   580  VAL580      0.0252
     48  CG1       39.0780   36.4780   75.3000 C.3   580  VAL580      0.0019
     49  CG2       38.2420   37.8480   77.2360 C.3   580  VAL580      0.0019
     50  N         43.9420   32.6720   81.7850 N.3   595  TRP595     -0.1241
     51  CA        42.5590   32.2380   81.5280 C.3   595  TRP595      0.1605
     52  C         42.4260   30.8450   80.9120 C.2   595  TRP595      0.2264
     53  O         41.3150   30.3390   80.7480 O.2   595  TRP595     -0.2867
     54  CB        41.8560   33.2650   80.6080 C.3   595  TRP595      0.0550
     55  CG        42.0450   34.7060   81.0250 C.ar  595  TRP595      0.0003
     56  CD1       42.3410   35.1760   82.2800 C.ar  595  TRP595      0.0946
     57  CD2       42.0580   35.8330   80.1580 C.ar  595  TRP595      0.0152
     58  NE1       42.5510   36.5390   82.2450 N.ar  595  TRP595     -0.2442
     59  CE2       42.3800   36.9770   80.9400 C.ar  595  TRP595      0.0810
     60  CE3       41.8320   36.0100   78.7740 C.ar  595  TRP595      0.0012
     61  CZ2       42.4930   38.2590   80.4010 C.ar  595  TRP595      0.0191
     62  CZ3       41.9440   37.2920   78.2290 C.ar  595  TRP595      0.0001
     63  CH2       42.2700   38.3970   79.0510 C.ar  595  TRP595      0.0015
     64  N         39.1870   28.3000   79.7030 N.3   599  TYR599     -0.1241
     65  CA        39.0120   28.1390   78.2570 C.3   599  TYR599      0.1605
     66  C         39.8060   27.0880   77.4980 C.2   599  TYR599      0.2264
     67  O         39.3790   26.6510   76.4240 O.2   599  TYR599     -0.2867
     68  CB        39.3370   29.4530   77.5430 C.3   599  TYR599      0.0534
     69  CG        38.6340   30.6940   78.0470 C.ar  599  TYR599     -0.0201
     70  CD1       37.2670   30.6710   78.3520 C.ar  599  TYR599     -0.0009
     71  CD2       39.3160   31.9040   78.1540 C.ar  599  TYR599     -0.0009
     72  CE1       36.5980   31.8410   78.7450 C.ar  599  TYR599      0.0417
     73  CE2       38.6600   33.0780   78.5380 C.ar  599  TYR599      0.0417
     74  CZ        37.2950   33.0390   78.8320 C.ar  599  TYR599      0.1957
     75  OH        36.6090   34.1720   79.2030 O.3   599  TYR599     -0.2866
     76  N         43.8980   44.4020   80.6130 N.3   643  ARG643     -0.1231
     77  CA        43.3790   43.1400   81.1450 C.3   643  ARG643      0.1694
     78  C         42.9390   42.3500   79.9050 C.2   643  ARG643      0.2591
     79  O         43.3580   41.2110   79.7220 O.2   643  ARG643     -0.2718
     80  CB        42.2130   43.3770   82.1050 C.3   643  ARG643      0.0321
     81  CG        41.6710   42.0760   82.6970 C.3   643  ARG643      0.0489
     82  CD        42.6030   41.4410   83.7140 C.3   643  ARG643      0.2205
     83  NE        42.8010   42.3340   84.8440 N.pl3 643  ARG643     -0.0865
     84  CZ        41.9680   42.4360   85.8770 C.cat 643  ARG643      0.5346
     85  NH1       40.8750   41.6870   85.9350 N.pl3 643  ARG643      0.1354
     86  NH2       42.1940   43.3240   86.8350 N.pl3 643  ARG643      0.1354
     87  N         42.0160   42.9100   79.1220 N.am  644  VAL644     -0.1980
     88  CA        41.5910   42.2780   77.8590 C.3   644  VAL644      0.1595
     89  C         42.0240   43.2930   76.8010 C.2   644  VAL644      0.2287
     90  O         41.3530   44.2930   76.5860 O.2   644  VAL644     -0.2864
     91  CB        40.0690   42.0310   77.8170 C.3   644  VAL644      0.0276
     92  CG1       39.6430   41.4130   76.4850 C.3   644  VAL644      0.0022
     93  CG2       39.6840   41.1020   78.9310 C.3   644  VAL644      0.0022
     94  N         40.0950   48.3760   81.7240 N.3   680  HIS680     -0.1241
     95  CA        39.0860   47.3250   81.8930 C.3   680  HIS680      0.1621
     96  C         37.8290   47.7900   82.6180 C.2   680  HIS680      0.2264
     97  O         36.7410   47.3000   82.3270 O.2   680  HIS680     -0.2867
     98  CB        39.6900   46.1130   82.6050 C.3   680  HIS680      0.0745
     99  CG        38.9920   44.8280   82.3050 C.ar  680  HIS680      0.0817
    100  ND1       38.7570   44.3840   81.0170 N.ar  680  HIS680     -0.2268
    101  CD2       38.4580   43.8790   83.1210 C.ar  680  HIS680      0.1154
    102  CE1       38.1280   43.2330   81.0520 C.ar  680  HIS680      0.1986
    103  NE2       37.9280   42.9020   82.3210 N.ar  680  HIS680     -0.2212
@<TRIPOS>BOND
     1    45    46    2
     2    45    44    1
     3    44    43    1
     4    44    47    1
     5    48    47    1
     6    47    49    1
     7    67    66    2
     8    92    91    1
     9    90    89    2
    10    89    88    1
    11    66    65    1
    12    68    69    1
    13    68    65    1
    14    91    88    1
    15    91    93    1
    16    88    87    1
    17    33    32    2
    18    69    71   ar
    19    69    70   ar
    20    71    73   ar
    21    62    60   ar
    22    62    63   ar
    23    65    64    1
    24    70    72   ar
    25    73    74   ar
    26    72    74   ar
    27    38    37    2
    28    60    57   ar
    29    74    75    1
    30    63    61   ar
    31    87    78   am
    32    32    31    1
    33    32    35   am
    34    37    36    1
    35    30    31    1
    36    31    34    1
    37    79    78    2
    38    36    35    1
    39    36    39    1
    40    78    77    1
    41    41    40    2
    42    57    59   ar
    43    57    55   ar
    44    61    59   ar
    45    54    55    1
    46    54    51    1
    47    76    77    1
    48    53    52    2
    49    40    39    1
    50    40    42   am
    51    52    51    1
    52    59    58   ar
    53   100   102   ar
    54   100    99   ar
    55    55    56   ar
    56   102   103   ar
    57    77    80    1
    58    10     9    2
    59    51    50    1
    60    94    95    1
    61    95    98    1
    62    95    96    1
    63    80    81    1
    64    58    56   ar
    65    99    98    1
    66    99   101   ar
    67   103   101   ar
    68    97    96    2
    69    29    28   ar
    70    29    27   ar
    71    28    26   ar
    72     9     8    1
    73    81    82    1
    74     7     8    1
    75     8    11    1
    76    27    25   ar
    77    13    15   ar
    78    13    12   ar
    79    15    17   ar
    80    82    83    1
    81    26    24   ar
    82    11    12    1
    83    12    14   ar
    84    17    18    1
    85    17    16   ar
    86    83    84    2
    87    25    24   ar
    88    24    23    1
    89    14    16   ar
    90    19    20    1
    91     6     5    1
    92    84    85    1
    93    84    86    1
    94    23    20    1
    95     5     2    1
    96    20    21    1
    97     1     2    1
    98     2     3    1
    99    21    22    2
   100     3     4    2
