@<TRIPOS>MOLECULE
tmp/1h31D00.pdb
 202 193 0 0 0
SMALL
GASTEIGER

@<TRIPOS>ATOM
      1  N         31.4810   29.0490   17.9330 N.3    34  MET34      -0.1245
      2  CA        30.2250   29.7870   18.0350 C.3    34  MET34       0.1570
      3  C         30.3190   31.2230   18.5680 C.2    34  MET34       0.2261
      4  O         29.3730   32.0080   18.4050 O.2    34  MET34      -0.2867
      5  CB        29.2390   28.9980   18.9060 C.3    34  MET34       0.0387
      6  CG        28.6250   27.8390   18.1850 C.3    34  MET34       0.0595
      7  SD        27.5490   27.0170   19.2750 S.3    34  MET34      -0.1393
      8  CE        26.2560   28.2150   19.5140 C.3    34  MET34       0.0692
      9  N         31.3000   31.4520   12.9780 N.3    40  GLY40      -0.1210
     10  CA        29.8810   31.2020   13.1600 C.3    40  GLY40       0.1956
     11  C         29.0730   32.4250   13.5750 C.2    40  GLY40       0.2612
     12  O         27.9320   32.6270   13.1260 O.2    40  GLY40      -0.2717
     13  N         29.6750   33.2390   14.4430 N.am   41  ASN41      -0.1960
     14  CA        29.0100   34.3570   15.1090 C.3    41  ASN41       0.1819
     15  C         27.6440   34.0130   15.6840 C.2    41  ASN41       0.2621
     16  O         26.7130   34.8070   15.5880 O.2    41  ASN41      -0.2715
     17  CB        28.8600   35.5600   14.1750 C.3    41  ASN41       0.1195
     18  CG        28.7280   36.8970   14.9600 C.2    41  ASN41       0.2630
     19  OD1       28.0100   37.8120   14.5510 O.2    41  ASN41      -0.2716
     20  ND2       29.4370   36.9980   16.0900 N.am   41  ASN41      -0.0877
     21  N         27.5260   32.8520   16.3120 N.am   42  CYS42      -0.1968
     22  CA        26.2160   32.4150   16.7650 C.3    42  CYS42       0.1712
     23  C         25.6470   33.2180   17.9240 C.2    42  CYS42       0.2296
     24  O         24.4630   33.4900   17.9310 O.2    42  CYS42      -0.2864
     25  CB        26.2510   30.9340   17.1330 C.3    42  CYS42       0.0983
     26  SG        27.2810   30.0960   15.9290 S.3    42  CYS42      -0.0798
     27  N         25.6790   36.1390   18.6430 N.3    44  ALA44      -0.1231
     28  CA        25.0780   37.4040   18.2320 C.3    44  ALA44       0.1694
     29  C         23.5570   37.2940   18.0940 C.2    44  ALA44       0.2592
     30  O         22.8630   38.2870   18.2550 O.2    44  ALA44      -0.2718
     31  CB        25.6850   37.8830   16.9250 C.3    44  ALA44       0.0304
     32  N         23.0510   36.0910   17.8040 N.am   45  CYS45      -0.1956
     33  CA        21.6070   35.8280   17.7680 C.3    45  CYS45       0.1843
     34  C         21.1320   34.8490   18.8570 C.2    45  CYS45       0.2625
     35  O         19.9370   34.7660   19.1540 O.2    45  CYS45      -0.2714
     36  CB        21.1910   35.2880   16.3880 C.3    45  CYS45       0.0997
     37  SG        21.3450   36.4990   15.0070 S.3    45  CYS45      -0.0797
     38  N         22.0660   34.1140   19.4560 N.am   46  HIS46      -0.1973
     39  CA        21.7090   33.0000   20.3270 C.3    46  HIS46       0.1656
     40  C         22.3100   33.0800   21.7270 C.2    46  HIS46       0.2291
     41  O         23.5060   33.3250   21.8890 O.2    46  HIS46      -0.2864
     42  CB        22.1430   31.6850   19.7000 C.3    46  HIS46       0.0771
     43  CG        21.3090   31.2660   18.5320 C.ar   46  HIS46       0.0820
     44  ND1       19.9830   30.9080   18.6550 N.ar   46  HIS46      -0.2267
     45  CD2       21.6160   31.1270   17.2230 C.ar   46  HIS46       0.1154
     46  CE1       19.5110   30.5690   17.4700 C.ar   46  HIS46       0.1986
     47  NE2       20.4820   30.6920   16.5870 N.ar   46  HIS46      -0.2212
     48  N         17.5650   37.4010   19.0520 N.3    60  VAL60      -0.1231
     49  CA        16.9160   37.2150   17.7500 C.3    60  VAL60       0.1692
     50  C         16.5260   35.7540   17.4620 C.2    60  VAL60       0.2593
     51  O         15.3720   35.4620   17.1210 O.2    60  VAL60      -0.2718
     52  CB        17.8290   37.7290   16.5990 C.3    60  VAL60       0.0266
     53  CG1       17.2790   37.2920   15.2500 C.3    60  VAL60       0.0020
     54  CG2       17.9390   39.2440   16.6580 C.3    60  VAL60       0.0020
     55  N         17.4850   34.8410   17.6020 N.am   61  GLY61      -0.1943
     56  CA        17.1680   33.4250   17.5650 C.3    61  GLY61       0.1998
     57  C         16.8080   32.8560   18.9300 C.2    61  GLY61       0.2480
     58  O         17.0970   33.4600   19.9530 O.2    61  GLY61      -0.2729
     59  N         16.1640   31.6910   18.9800 N.am   62  PRO62      -0.2726
     60  CA        15.8000   31.1050   20.2680 C.3    62  PRO62       0.1402
     61  C         17.0290   30.6370   21.0240 C.2    62  PRO62       0.2269
     62  O         18.0550   30.3310   20.4160 O.2    62  PRO62      -0.2865
     63  CB        14.9080   29.9370   19.8730 C.3    62  PRO62       0.0296
     64  CG        15.5430   29.4740   18.6030 C.3    62  PRO62       0.0237
     65  CD        15.7940   30.7950   17.8740 C.3    62  PRO62       0.0939
     66  N         19.5420   28.2960   22.6100 N.3    64  LEU64      -0.1245
     67  CA        19.8990   26.9790   22.1220 C.3    64  LEU64       0.1561
     68  C         19.9240   25.8810   23.1770 C.2    64  LEU64       0.2260
     69  O         20.0720   24.7120   22.8330 O.2    64  LEU64      -0.2867
     70  CB        21.2390   27.0210   21.4120 C.3    64  LEU64       0.0270
     71  CG        21.2260   27.7500   20.0680 C.3    64  LEU64       0.0019
     72  CD1       22.5870   27.5140   19.3850 C.3    64  LEU64       0.0001
     73  CD2       20.0550   27.2330   19.1870 C.3    64  LEU64       0.0001
     74  N         18.4660   22.1010   22.6830 N.3    67  VAL67      -0.1245
     75  CA        18.2690   21.8410   21.2750 C.3    67  VAL67       0.1561
     76  C         18.5840   20.3780   20.9470 C.2    67  VAL67       0.2260
     77  O         18.0220   19.8280   20.0110 O.2    67  VAL67      -0.2867
     78  CB        19.1510   22.7880   20.4240 C.3    67  VAL67       0.0252
     79  CG1       20.6040   22.3860   20.5520 C.3    67  VAL67       0.0019
     80  CG2       18.6700   22.7940   18.9600 C.3    67  VAL67       0.0019
     81  N         15.4040   18.3070   21.5990 N.3    70  ARG70      -0.1231
     82  CA        14.2350   18.4940   20.7480 C.3    70  ARG70       0.1694
     83  C         14.4390   18.2200   19.2580 C.2    70  ARG70       0.2592
     84  O         13.4710   17.9060   18.5640 O.2    70  ARG70      -0.2718
     85  CB        13.6680   19.9000   20.9220 C.3    70  ARG70       0.0321
     86  CG        14.6370   21.0130   20.6790 C.3    70  ARG70       0.0489
     87  CD        13.9130   22.3230   20.6480 C.3    70  ARG70       0.2205
     88  NE        14.8260   23.4590   20.6220 N.pl3  70  ARG70      -0.0865
     89  CZ        15.4500   23.9570   21.7000 C.cat  70  ARG70       0.5346
     90  NH1       15.2640   23.4180   22.8990 N.pl3  70  ARG70       0.1354
     91  NH2       16.2560   25.0130   21.5890 N.pl3  70  ARG70       0.1354
     92  N         15.6750   18.3460   18.7660 N.am   71  TYR71      -0.1976
     93  CA        15.9790   18.0610   17.3580 C.3    71  TYR71       0.1639
     94  C         17.0390   16.9810   17.2530 C.2    71  TYR71       0.2290
     95  O         18.0070   16.9640   18.0430 O.2    71  TYR71      -0.2864
     96  CB        16.5020   19.3030   16.6350 C.3    71  TYR71       0.0560
     97  CG        15.5920   20.5040   16.6860 C.ar   71  TYR71      -0.0198
     98  CD1       14.2270   20.3680   16.9310 C.ar   71  TYR71      -0.0009
     99  CD2       16.0960   21.7800   16.4950 C.ar   71  TYR71      -0.0009
    100  CE1       13.3920   21.4830   16.9980 C.ar   71  TYR71       0.0417
    101  CE2       15.2810   22.8850   16.5520 C.ar   71  TYR71       0.0417
    102  CZ        13.9290   22.7380   16.8170 C.ar   71  TYR71       0.1957
    103  OH        13.1330   23.8540   16.9860 O.3    71  TYR71      -0.2866
    104  N         19.7400   19.2890   13.1360 N.3    76  ILE76      -0.1245
    105  CA        20.6350   20.3290   13.6170 C.3    76  ILE76       0.1561
    106  C         21.7030   20.5830   12.5640 C.2    76  ILE76       0.2260
    107  O         22.0250   21.7380   12.2800 O.2    76  ILE76      -0.2867
    108  CB        21.3200   19.9550   15.0000 C.3    76  ILE76       0.0252
    109  CG1       20.3360   20.2090   16.1530 C.3    76  ILE76       0.0019
    110  CG2       22.5970   20.7640   15.2000 C.3    76  ILE76       0.0019
    111  CD1       20.7670   19.6630   17.5140 C.3    76  ILE76       0.0001
    112  N         20.2840   22.5180    9.7690 N.3    79  ILE79      -0.1231
    113  CA        20.1480   23.9100   10.1610 C.3    79  ILE79       0.1692
    114  C         21.4050   24.7060    9.8430 C.2    79  ILE79       0.2591
    115  O         21.3480   25.9080    9.5820 O.2    79  ILE79      -0.2718
    116  CB        19.7890   24.0330   11.6690 C.3    79  ILE79       0.0266
    117  CG1       18.3890   23.4520   11.8870 C.3    79  ILE79       0.0019
    118  CG2       19.7890   25.4890   12.1110 C.3    79  ILE79       0.0020
    119  CD1       17.8950   23.5000   13.3040 C.3    79  ILE79       0.0001
    120  N         22.5390   24.0230    9.8260 N.am   80  LEU80      -0.1980
    121  CA        23.8310   24.6740    9.6600 C.3    80  LEU80       0.1596
    122  C         24.3130   24.6070    8.2190 C.2    80  LEU80       0.2287
    123  O         25.1310   25.4230    7.7780 O.2    80  LEU80      -0.2864
    124  CB        24.8560   24.0250   10.5860 C.3    80  LEU80       0.0297
    125  CG        24.5780   24.3280   12.0570 C.3    80  LEU80       0.0022
    126  CD1       25.4630   23.4510   12.9140 C.3    80  LEU80       0.0001
    127  CD2       24.8220   25.7970   12.3440 C.3    80  LEU80       0.0001
    128  N         13.9560   26.1840    8.0960 N.3    87  PHE87      -0.1241
    129  CA        13.1750   27.3540    8.5350 C.3    87  PHE87       0.1605
    130  C         13.1030   28.3450    7.3840 C.2    87  PHE87       0.2264
    131  O         13.8950   29.2760    7.3100 O.2    87  PHE87      -0.2867
    132  CB        13.8530   28.0410    9.7240 C.3    87  PHE87       0.0534
    133  CG        14.1050   27.1440   10.8910 C.ar   87  PHE87      -0.0203
    134  CD1       13.0480   26.5270   11.5410 C.ar   87  PHE87      -0.0042
    135  CD2       15.3950   27.0140   11.4210 C.ar   87  PHE87      -0.0042
    136  CE1       13.2610   25.8050   12.7130 C.ar   87  PHE87      -0.0003
    137  CE2       15.6250   26.2940   12.5950 C.ar   87  PHE87      -0.0003
    138  CZ        14.5580   25.6900   13.2480 C.ar   87  PHE87      -0.0000
    139  N         14.0980   32.3920    7.1400 N.3    90  THR90      -0.1203
    140  CA        14.7880   32.6850    8.3690 C.3    90  THR90       0.1994
    141  C         15.9150   33.6530    8.1260 C.2    90  THR90       0.2618
    142  O         16.5220   33.6920    7.0570 O.2    90  THR90      -0.2717
    143  CB        15.3730   31.4010    9.0550 C.3    90  THR90       0.1784
    144  OG1       15.8730   31.7520   10.3580 O.3    90  THR90      -0.2211
    145  CG2       16.4990   30.7750    8.2070 C.3    90  THR90       0.0376
    146  N         16.1880   34.4430    9.1480 N.am   91  VAL91      -0.1965
    147  CA        17.2800   35.3880    9.1050 C.3    91  VAL91       0.1727
    148  C         18.6190   34.6960    9.4260 C.2    91  VAL91       0.2616
    149  O         19.6960   35.2410    9.1120 O.2    91  VAL91      -0.2715
    150  CB        17.0090   36.5260   10.0960 C.3    91  VAL91       0.0290
    151  CG1       15.8040   37.3640    9.6080 C.3    91  VAL91       0.0023
    152  CG2       16.7320   35.9250   11.4890 C.3    91  VAL91       0.0023
    153  N         18.5570   33.4990   10.0220 N.am   92  MET92      -0.1964
    154  CA        19.7620   32.7200   10.2270 C.3    92  MET92       0.1722
    155  C         20.5130   32.4930    8.9200 C.2    92  MET92       0.2458
    156  O         19.9610   31.9560    7.9780 O.2    92  MET92      -0.2730
    157  CB        19.4440   31.3670   10.8400 C.3    92  MET92       0.0427
    158  CG        20.7180   30.5880   11.0960 C.3    92  MET92       0.0599
    159  SD        20.5950   29.2680   12.3010 S.3    92  MET92      -0.1393
    160  CE        21.9220   28.2160   11.7630 C.3    92  MET92       0.0692
    161  N         21.7960   32.9010    8.8560 N.am   93  PRO93      -0.2727
    162  CA        22.5960   32.7240    7.6430 C.3    93  PRO93       0.1402
    163  C         22.6830   31.2510    7.2940 C.2    93  PRO93       0.2269
    164  O         22.5100   30.3800    8.1560 O.2    93  PRO93      -0.2865
    165  CB        23.9550   33.3050    8.0250 C.3    93  PRO93       0.0296
    166  CG        23.6250   34.2950    9.0570 C.3    93  PRO93       0.0237
    167  CD        22.5920   33.5750    9.8960 C.3    93  PRO93       0.0939
    168  N         25.1550   28.4040    6.3270 N.3    95  TYR95      -0.1241
    169  CA        26.5740   28.3310    6.6220 C.3    95  TYR95       0.1605
    170  C         27.3760   27.4280    5.7360 C.2    95  TYR95       0.2264
    171  O         28.5890   27.4700    5.7630 O.2    95  TYR95      -0.2867
    172  CB        26.7930   27.9670    8.0840 C.3    95  TYR95       0.0534
    173  CG        26.5180   29.1530    8.9770 C.ar   95  TYR95      -0.0201
    174  CD1       27.4370   30.2010    9.0680 C.ar   95  TYR95      -0.0009
    175  CD2       25.2950   29.2790    9.6710 C.ar   95  TYR95      -0.0009
    176  CE1       27.1470   31.3470    9.8170 C.ar   95  TYR95       0.0417
    177  CE2       25.0000   30.4200   10.4240 C.ar   95  TYR95       0.0417
    178  CZ        25.9250   31.4450   10.4930 C.ar   95  TYR95       0.1957
    179  OH        25.6460   32.5640   11.2470 O.3    95  TYR95      -0.2866
    180  N         31.3660   28.4460    6.8360 N.3   121  MET121     -0.1245
    181  CA        32.0550   27.5120    7.7040 C.3   121  MET121      0.1570
    182  C         32.4800   26.3070    6.8980 C.2   121  MET121      0.2261
    183  O         31.7910   25.8900    5.9690 O.2   121  MET121     -0.2867
    184  CB        31.1200   27.0430    8.8120 C.3   121  MET121      0.0387
    185  CG        30.8360   28.0590    9.9150 C.3   121  MET121      0.0595
    186  SD        29.8410   27.3150   11.3050 S.3   121  MET121     -0.1393
    187  CE        31.1250   26.4410   12.1790 C.3   121  MET121      0.0692
    188  N         30.8500   22.1720   15.5250 N.3   129  VAL129     -0.1245
    189  CA        29.7950   22.9370   16.1760 C.3   129  VAL129      0.1561
    190  C         28.6090   22.0570   16.4950 C.2   129  VAL129      0.2260
    191  O         28.0620   22.1160   17.5940 O.2   129  VAL129     -0.2867
    192  CB        29.3420   24.0890   15.2980 C.3   129  VAL129      0.0252
    193  CG1       28.0470   24.6410   15.7950 C.3   129  VAL129      0.0019
    194  CG2       30.3870   25.1600   15.2940 C.3   129  VAL129      0.0019
    195  N         26.6870   21.4570   19.8570 N.3   133  LEU133     -0.1245
    196  CA        25.2450   21.5550   20.0210 C.3   133  LEU133      0.1561
    197  C         24.6620   20.2760   20.5830 C.2   133  LEU133      0.2260
    198  O         23.7390   20.3400   21.3880 O.2   133  LEU133     -0.2867
    199  CB        24.5870   21.8900   18.6860 C.3   133  LEU133      0.0270
    200  CG        25.0130   23.2630   18.1710 C.3   133  LEU133      0.0019
    201  CD1       24.3790   23.5180   16.8100 C.3   133  LEU133      0.0001
    202  CD2       24.6280   24.3280   19.2010 C.3   133  LEU133      0.0001
@<TRIPOS>BOND
     1   170   171    2
     2   170   169    1
     3   183   182    2
     4   168   169    1
     5   169   172    1
     6   180   181    1
     7   182   181    1
     8   142   141    2
     9   139   140    1
    10   163   162    1
    11   163   164    2
    12   131   130    2
    13   130   129    1
    14   162   165    1
    15   162   161    1
    16   181   184    1
    17   123   122    2
    18   156   155    2
    19   165   166    1
    20   172   173    1
    21   128   129    1
    22   141   140    1
    23   141   146   am
    24   145   143    1
    25   122   121    1
    26   140   143    1
    27   129   132    1
    28   184   185    1
    29   161   155   am
    30   161   167    1
    31   155   154    1
    32   173   174   ar
    33   173   175   ar
    34   143   144    1
    35   166   167    1
    36   174   176   ar
    37   147   146    1
    38   147   148    1
    39   147   150    1
    40   149   148    2
    41   148   153   am
    42   115   114    2
    43   151   150    1
    44   121   120    1
    45   121   124    1
    46   175   177   ar
    47   132   133    1
    48   112   113    1
    49   176   178   ar
    50   120   114   am
    51   114   113    1
    52   185   186    1
    53   153   154    1
    54   150   152    1
    55   113   116    1
    56   154   157    1
    57   177   178   ar
    58   178   179    1
    59   124   125    1
    60   157   158    1
    61   133   135   ar
    62   133   134   ar
    63   158   159    1
    64   186   187    1
    65   135   137   ar
    66   134   136   ar
    67   116   117    1
    68   116   118    1
    69   160   159    1
    70   117   119    1
    71   125   127    1
    72   125   126    1
    73   107   106    2
    74   106   105    1
    75   137   138   ar
    76   136   138   ar
    77     9    10    1
    78    12    11    2
    79   104   105    1
    80    10    11    1
    81    11    13   am
    82   105   108    1
    83    17    18    1
    84    17    14    1
    85    13    14    1
    86    19    18    2
    87    18    20   am
    88   108   110    1
    89   108   109    1
    90    37    36    1
    91    14    15    1
    92    53    52    1
    93   194   192    1
    94   192   193    1
    95   192   189    1
    96   188   189    1
    97    16    15    2
    98    15    21   am
    99    26    25    1
   100   109   111    1
   101   189   190    1
   102    21    22    1
   103    36    33    1
   104   190   191    2
   105    99   101   ar
   106    99    97   ar
   107   101   102   ar
   108    47    45   ar
   109    47    46   ar
   110    52    54    1
   111    52    49    1
   112    96    97    1
   113    96    93    1
   114    97    98   ar
   115    22    25    1
   116    22    23    1
   117   201   200    1
   118   102   103    1
   119   102   100   ar
   120    31    28    1
   121    98   100   ar
   122    51    50    2
   123    45    43   ar
   124    94    93    1
   125    94    95    2
   126    93    92    1
   127    50    55   am
   128    50    49    1
   129    46    44   ar
   130    56    55    1
   131    56    57    1
   132    49    48    1
   133    33    32    1
   134    33    34    1
   135    32    29   am
   136    65    64    1
   137    65    59    1
   138    23    24    2
   139     1     2    1
   140     2     3    1
   141     2     5    1
   142    29    28    1
   143    29    30    2
   144   200   199    1
   145   200   202    1
   146     6     5    1
   147     6     7    1
   148    28    27    1
   149     4     3    2
   150    43    44   ar
   151    43    42    1
   152    84    83    2
   153    64    63    1
   154   199   196    1
   155    92    83   am
   156    34    35    2
   157    34    38   am
   158    57    59   am
   159    57    58    2
   160    80    78    1
   161    59    60    1
   162    73    71    1
   163    83    82    1
   164     7     8    1
   165    72    71    1
   166    38    39    1
   167    42    39    1
   168   195   196    1
   169    63    60    1
   170    77    76    2
   171   196   197    1
   172    71    70    1
   173    60    61    1
   174    39    40    1
   175    62    61    2
   176    78    79    1
   177    78    75    1
   178   197   198    2
   179    88    87    1
   180    88    89    2
   181    87    86    1
   182    86    85    1
   183    82    85    1
   184    82    81    1
   185    76    75    1
   186    75    74    1
   187    70    67    1
   188    91    89    1
   189    89    90    1
   190    40    41    2
   191    67    66    1
   192    67    68    1
   193    69    68    2
