@<TRIPOS>MOLECULE
tmp/1h32A00.pdb
 183 175 0 0 0
SMALL
GASTEIGER

@<TRIPOS>ATOM
      1  N         21.0760   77.0760   52.6110 N.3    64  VAL64      -0.1231
      2  CA        21.8320   78.2190   52.1260 C.3    64  VAL64       0.1692
      3  C         20.9830   79.4970   52.1740 C.2    64  VAL64       0.2592
      4  O         21.4840   80.5900   52.4800 O.2    64  VAL64      -0.2718
      5  CB        22.3340   77.9420   50.6900 C.3    64  VAL64       0.0266
      6  CG1       22.8820   79.1920   50.0820 C.3    64  VAL64       0.0020
      7  CG2       23.3910   76.8440   50.7280 C.3    64  VAL64       0.0020
      8  N         19.6980   79.3620   51.8740 N.am   65  TRP65      -0.1976
      9  CA        18.7790   80.4860   51.8450 C.3    65  TRP65       0.1640
     10  C         18.7800   81.2440   53.1730 C.2    65  TRP65       0.2290
     11  O         18.6150   82.4730   53.1910 O.2    65  TRP65      -0.2864
     12  CB        17.3730   79.9700   51.5030 C.3    65  TRP65       0.0576
     13  CG        16.2960   81.0020   51.5020 C.ar   65  TRP65       0.0006
     14  CD1       15.4630   81.3210   52.5460 C.ar   65  TRP65       0.0946
     15  CD2       15.9180   81.8520   50.4100 C.ar   65  TRP65       0.0152
     16  NE1       14.5980   82.3120   52.1620 N.ar   65  TRP65      -0.2442
     17  CE2       14.8520   82.6620   50.8600 C.ar   65  TRP65       0.0810
     18  CE3       16.3760   82.0100   49.0930 C.ar   65  TRP65       0.0012
     19  CZ2       14.2310   83.6190   50.0390 C.ar   65  TRP65       0.0191
     20  CZ3       15.7670   82.9640   48.2710 C.ar   65  TRP65       0.0001
     21  CH2       14.7000   83.7610   48.7470 C.ar   65  TRP65       0.0015
     22  N         24.1850   89.2130   55.7320 N.3    74  LYS74      -0.1231
     23  CA        22.7820   88.8880   55.4770 C.3    74  LYS74       0.1693
     24  C         22.5950   87.5750   54.7210 C.2    74  LYS74       0.2592
     25  O         23.4700   87.1420   53.9710 O.2    74  LYS74      -0.2718
     26  CB        22.1300   90.0160   54.6720 C.3    74  LYS74       0.0285
     27  CG        22.2130   91.3740   55.3690 C.3    74  LYS74       0.0035
     28  CD        21.6670   92.4860   54.5160 C.3    74  LYS74       0.0206
     29  CE        21.9670   93.8370   55.1690 C.3    74  LYS74       0.1093
     30  NZ        21.5040   94.9840   54.3340 N.3    74  LYS74      -0.1314
     31  N         21.4350   86.9640   54.9280 N.am   75  ALA75      -0.1966
     32  CA        20.9970   85.7940   54.1490 C.3    75  ALA75       0.1728
     33  C         19.8540   86.1950   53.2140 C.2    75  ALA75       0.2616
     34  O         19.1960   87.2030   53.4260 O.2    75  ALA75      -0.2715
     35  CB        20.5250   84.6980   55.0970 C.3    75  ALA75       0.0334
     36  N         19.6020   85.4000   52.1690 N.am   76  CYS76      -0.1968
     37  CA        18.5070   85.7170   51.2650 C.3    76  CYS76       0.1712
     38  C         17.2430   85.9860   52.0680 C.2    76  CYS76       0.2296
     39  O         16.4940   86.9260   51.7740 O.2    76  CYS76      -0.2864
     40  CB        18.2160   84.5560   50.2920 C.3    76  CYS76       0.0983
     41  SG        19.6090   83.7730   49.4410 S.3    76  CYS76      -0.0798
     42  N         15.9300   89.4230   53.4660 N.3    79  CYS79      -0.1221
     43  CA        15.2280   90.3670   52.6090 C.3    79  CYS79       0.1808
     44  C         14.0000   89.7740   51.9340 C.2    79  CYS79       0.2601
     45  O         13.0200   90.4740   51.6810 O.2    79  CYS79      -0.2717
     46  CB        16.1610   90.9030   51.5340 C.3    79  CYS79       0.0970
     47  SG        17.5040   91.9170   52.2490 S.3    79  CYS79      -0.0800
     48  N         14.0490   88.4870   51.6190 N.am   80  HIS80      -0.1975
     49  CA        12.9710   87.8780   50.8470 C.3    80  HIS80       0.1656
     50  C         11.9940   87.0480   51.6790 C.2    80  HIS80       0.2291
     51  O         10.9990   86.5660   51.1370 O.2    80  HIS80      -0.2864
     52  CB        13.5430   86.9750   49.7390 C.3    80  HIS80       0.0771
     53  CG        14.2180   87.7310   48.6380 C.ar   80  HIS80       0.0820
     54  ND1       13.5210   88.3270   47.6090 N.ar   80  HIS80      -0.2267
     55  CD2       15.5330   87.9850   48.4070 C.ar   80  HIS80       0.1154
     56  CE1       14.3730   88.9190   46.7940 C.ar   80  HIS80       0.1986
     57  NE2       15.6020   88.7230   47.2490 N.ar   80  HIS80      -0.2212
     58  N          9.7350   83.6640   46.8470 N.3    87  MET87      -0.1245
     59  CA        10.0810   83.2780   45.4920 C.3    87  MET87       0.1570
     60  C          8.8840   82.6990   44.7610 C.2    87  MET87       0.2261
     61  O          9.0020   82.2700   43.6130 O.2    87  MET87      -0.2867
     62  CB        11.2310   82.2690   45.5470 C.3    87  MET87       0.0387
     63  CG        12.5400   82.9070   45.9840 C.3    87  MET87       0.0595
     64  SD        13.1730   84.0270   44.6640 S.3    87  MET87      -0.1393
     65  CE        13.3010   85.6430   45.5330 C.3    87  MET87       0.0692
     66  N          7.9500   82.9990   40.8100 N.3    90  LEU90      -0.1245
     67  CA         8.9660   83.6810   40.0390 C.3    90  LEU90       0.1561
     68  C          9.4470   82.8460   38.8670 C.2    90  LEU90       0.2260
     69  O          9.6150   83.3700   37.7520 O.2    90  LEU90      -0.2867
     70  CB        10.1420   84.0720   40.9460 C.3    90  LEU90       0.0270
     71  CG        10.7820   85.4260   40.6230 C.3    90  LEU90       0.0019
     72  CD1        9.6960   86.4950   40.6310 C.3    90  LEU90       0.0001
     73  CD2       11.8430   85.7730   41.6440 C.3    90  LEU90       0.0001
     74  N         10.0680   84.1900   34.5420 N.3    94  TYR94      -0.1241
     75  CA        11.3980   84.5110   33.9830 C.3    94  TYR94       0.1605
     76  C         11.7710   83.5490   32.8670 C.2    94  TYR94       0.2264
     77  O         11.3040   82.4010   32.8670 O.2    94  TYR94      -0.2867
     78  CB        12.4980   84.4240   35.0590 C.3    94  TYR94       0.0534
     79  CG        12.6780   85.6720   35.9140 C.ar   94  TYR94      -0.0201
     80  CD1       11.8470   85.9240   37.0040 C.ar   94  TYR94      -0.0009
     81  CD2       13.6970   86.6030   35.6160 C.ar   94  TYR94      -0.0009
     82  CE1       12.0220   87.0640   37.7900 C.ar   94  TYR94       0.0417
     83  CE2       13.8700   87.7670   36.3920 C.ar   94  TYR94       0.0417
     84  CZ        13.0250   87.9760   37.4770 C.ar   94  TYR94       0.1957
     85  OH        13.1700   89.1130   38.2510 O.3    94  TYR94      -0.2866
     86  N         12.3890   87.6080   32.1030 N.3    96  LYS96      -0.1245
     87  CA        11.4750   88.7400   31.8970 C.3    96  LYS96       0.1561
     88  C         12.2340   90.0430   31.8530 C.2    96  LYS96       0.2260
     89  O         13.3680   90.1590   32.3220 O.2    96  LYS96      -0.2867
     90  CB        10.4290   88.8070   33.0160 C.3    96  LYS96       0.0271
     91  CG        11.0140   89.1190   34.3700 C.3    96  LYS96       0.0035
     92  CD         9.9540   89.1640   35.4660 C.3    96  LYS96       0.0206
     93  CE         9.0630   90.3710   35.3590 C.3    96  LYS96       0.1093
     94  NZ         8.2270   90.4700   36.5910 N.3    96  LYS96      -0.1314
     95  N         16.8380   84.4050   35.9680 N.3   107  VAL107     -0.1245
     96  CA        16.8630   84.2690   37.4190 C.3   107  VAL107      0.1561
     97  C         18.3030   84.3080   37.9360 C.2   107  VAL107      0.2260
     98  O         18.5880   84.8720   39.0010 O.2   107  VAL107     -0.2867
     99  CB        16.1760   82.9190   37.8600 C.3   107  VAL107      0.0252
    100  CG1       16.2460   82.7170   39.3910 C.3   107  VAL107      0.0019
    101  CG2       14.7370   82.9450   37.4290 C.3   107  VAL107      0.0019
    102  N         19.6200   87.7460   38.2890 N.3   110  MET110     -0.1230
    103  CA        19.0750   88.4030   39.4580 C.3   110  MET110      0.1702
    104  C         19.7660   87.9450   40.7290 C.2   110  MET110      0.2592
    105  O         20.1350   88.7600   41.5680 O.2   110  MET110     -0.2718
    106  CB        17.5720   88.1600   39.5470 C.3   110  MET110      0.0401
    107  CG        16.8340   88.6250   38.3150 C.3   110  MET110      0.0596
    108  SD        17.0680   90.3730   37.9160 S.3   110  MET110     -0.1393
    109  CE        16.0480   91.1710   39.2100 C.3   110  MET110      0.0692
    110  N         19.9190   86.6320   40.9040 N.am  111  ILE111     -0.1980
    111  CA        20.5970   86.1210   42.0860 C.3   111  ILE111      0.1595
    112  C         21.9820   86.7220   42.2420 C.2   111  ILE111      0.2287
    113  O         22.3590   87.1450   43.3410 O.2   111  ILE111     -0.2864
    114  CB        20.7020   84.5810   42.0070 C.3   111  ILE111      0.0276
    115  CG1       19.2890   84.0090   42.0780 C.3   111  ILE111      0.0022
    116  CG2       21.5760   84.0500   43.1260 C.3   111  ILE111      0.0022
    117  CD1       19.2450   82.5190   41.8340 C.3   111  ILE111      0.0001
    118  N         21.9940   90.2880   43.6060 N.3   114  CYS114     -0.1221
    119  CA        21.8360   90.4020   45.0400 C.3   114  CYS114      0.1808
    120  C         23.0870   89.9560   45.7880 C.2   114  CYS114      0.2601
    121  O         23.4960   90.5860   46.7850 O.2   114  CYS114     -0.2717
    122  CB        20.6440   89.5830   45.5250 C.3   114  CYS114      0.0970
    123  SG        19.0360   90.2470   45.0070 S.3   114  CYS114     -0.0800
    124  N         23.7050   88.8750   45.3310 N.am  115  ARG115     -0.1979
    125  CA        24.9070   88.4060   45.9800 C.3   115  ARG115      0.1597
    126  C         25.9550   89.5090   46.0320 C.2   115  ARG115      0.2287
    127  O         26.5720   89.7400   47.0730 O.2   115  ARG115     -0.2864
    128  CB        25.4530   87.1760   45.2490 C.3   115  ARG115      0.0334
    129  CG        24.5560   85.9780   45.4480 C.3   115  ARG115      0.0492
    130  CD        25.2500   84.7110   45.0220 C.3   115  ARG115      0.2205
    131  NE        26.4680   84.4300   45.8020 N.pl3 115  ARG115     -0.0865
    132  CZ        26.5120   84.0110   47.0570 C.cat 115  ARG115      0.5346
    133  NH1       25.3880   83.8150   47.7500 N.pl3 115  ARG115      0.1354
    134  NH2       27.7040   83.7480   47.6060 N.pl3 115  ARG115      0.1354
    135  N         24.1200   93.4430   47.2100 N.3   118  ARG118     -0.1231
    136  CA        23.3480   93.5290   48.4390 C.3   118  ARG118      0.1694
    137  C         23.9290   92.7010   49.5560 C.2   118  ARG118      0.2591
    138  O         23.7090   92.9890   50.7350 O.2   118  ARG118     -0.2718
    139  CB        21.9060   93.1070   48.1610 C.3   118  ARG118      0.0321
    140  CG        21.2460   94.0640   47.1910 C.3   118  ARG118      0.0489
    141  CD        19.8310   93.6740   46.8580 C.3   118  ARG118      0.2205
    142  NE        19.1320   94.7430   46.1510 N.pl3 118  ARG118     -0.0865
    143  CZ        18.7930   94.6990   44.8670 C.cat 118  ARG118      0.5346
    144  NH1       19.0770   93.6240   44.1350 N.pl3 118  ARG118      0.1354
    145  NH2       18.1950   95.7460   44.3100 N.pl3 118  ARG118      0.1354
    146  N         24.6910   91.6730   49.2000 N.am  119  MET119     -0.1979
    147  CA        25.2590   90.7950   50.2210 C.3   119  MET119      0.1605
    148  C         26.7510   90.9970   50.4750 C.2   119  MET119      0.2287
    149  O         27.2750   90.6170   51.5150 O.2   119  MET119     -0.2864
    150  CB        24.9800   89.3360   49.8330 C.3   119  MET119      0.0413
    151  CG        23.5070   88.9780   49.9320 C.3   119  MET119      0.0598
    152  SD        23.1330   87.3170   49.3960 S.3   119  MET119     -0.1393
    153  CE        24.0490   86.3580   50.6040 C.3   119  MET119      0.0692
    154  N         28.0750   83.5420   42.3340 N.3   124  TRP124     -0.1241
    155  CA        28.1180   82.1240   41.9540 C.3   124  TRP124      0.1605
    156  C         28.3490   81.9180   40.4620 C.2   124  TRP124      0.2264
    157  O         27.7530   82.5880   39.6280 O.2   124  TRP124     -0.2867
    158  CB        26.8220   81.4190   42.3600 C.3   124  TRP124      0.0550
    159  CG        26.6500   81.2350   43.8670 C.ar  124  TRP124      0.0003
    160  CD1       27.6300   81.0050   44.7980 C.ar  124  TRP124      0.0946
    161  CD2       25.4110   81.1960   44.5790 C.ar  124  TRP124      0.0152
    162  NE1       27.0680   80.8230   46.0450 N.ar  124  TRP124     -0.2442
    163  CE2       25.7040   80.9330   45.9310 C.ar  124  TRP124      0.0810
    164  CE3       24.0700   81.3600   44.1940 C.ar  124  TRP124      0.0012
    165  CZ2       24.7040   80.8270   46.9120 C.ar  124  TRP124      0.0191
    166  CZ3       23.0890   81.2590   45.1540 C.ar  124  TRP124      0.0001
    167  CH2       23.4010   80.9960   46.5000 C.ar  124  TRP124      0.0015
    168  N         20.3080   76.6920   43.8410 N.3   134  MET134     -0.1245
    169  CA        19.4020   77.7610   44.2590 C.3   134  MET134      0.1570
    170  C         18.2900   77.9860   43.2160 C.2   134  MET134      0.2261
    171  O         17.1270   78.1820   43.5850 O.2   134  MET134     -0.2867
    172  CB        20.1740   79.0740   44.5180 C.3   134  MET134      0.0387
    173  CG        19.2850   80.1700   45.1710 C.3   134  MET134      0.0595
    174  SD        18.5180   79.7230   46.7340 S.3   134  MET134     -0.1393
    175  CE        19.9670   79.8130   47.8490 C.3   134  MET134      0.0692
    176  N         14.2420   77.6710   43.8340 N.3   138  ILE138     -0.1245
    177  CA        13.2770   78.6510   43.3530 C.3   138  ILE138      0.1561
    178  C         12.2250   77.9840   42.4400 C.2   138  ILE138      0.2260
    179  O         10.9970   78.2070   42.5870 O.2   138  ILE138     -0.2867
    180  CB        14.0540   79.8000   42.6920 C.3   138  ILE138      0.0252
    181  CG1       14.7990   80.5580   43.8110 C.3   138  ILE138      0.0019
    182  CG2       13.1310   80.7510   41.9610 C.3   138  ILE138      0.0019
    183  CD1       15.8140   81.6030   43.3110 C.3   138  ILE138      0.0001
@<TRIPOS>BOND
     1    88    87    1
     2    88    89    2
     3    87    86    1
     4    87    90    1
     5    77    76    2
     6    76    75    1
     7    90    91    1
     8    75    74    1
     9    75    78    1
    10    91    92    1
    11    78    79    1
    12    93    92    1
    13    93    94    1
    14    81    79   ar
    15    81    83   ar
    16    79    80   ar
    17    95    96    1
    18    83    84   ar
    19    80    82   ar
    20    96    99    1
    21    96    97    1
    22   101    99    1
    23    84    82   ar
    24    84    85    1
    25    69    68    2
    26    99   100    1
    27   108   107    1
    28   108   109    1
    29    97    98    2
    30   102   103    1
    31   107   106    1
    32    68    67    1
    33   103   106    1
    34   103   104    1
    35   157   156    2
    36    67    66    1
    37    67    70    1
    38   156   155    1
    39    71    72    1
    40    71    70    1
    41    71    73    1
    42   104   110   am
    43   104   105    2
    44   110   111    1
    45   117   115    1
    46   155   154    1
    47   155   158    1
    48   182   180    1
    49   114   115    1
    50   114   111    1
    51   114   116    1
    52   111   112    1
    53   112   113    2
    54   158   159    1
    55   178   179    2
    56   178   177    1
    57   180   177    1
    58   180   181    1
    59   170   171    2
    60   170   169    1
    61   183   181    1
    62   177   176    1
    63   118   119    1
    64    61    60    2
    65   168   169    1
    66   159   161   ar
    67   159   160   ar
    68   144   143    1
    69   164   161   ar
    70   164   166   ar
    71   169   172    1
    72   145   143    1
    73   172   173    1
    74   161   163   ar
    75    64    65    1
    76    64    63    1
    77    60    59    1
    78   160   162   ar
    79   143   142    2
    80   123   122    1
    81   130   129    1
    82   130   131    1
    83   119   122    1
    84   119   120    1
    85   166   167   ar
    86   173   174    1
    87   128   129    1
    88   128   125    1
    89   124   120   am
    90   124   125    1
    91    59    62    1
    92    59    58    1
    93    62    63    1
    94   120   121    2
    95   131   132    2
    96   163   162   ar
    97   163   165   ar
    98   125   126    1
    99   126   127    2
   100   142   141    1
   101   167   165   ar
   102   174   175    1
   103    56    57   ar
   104    56    54   ar
   105   141   140    1
   106   132   134    1
   107   132   133    1
   108   140   139    1
   109   135   136    1
   110    57    55   ar
   111    54    53   ar
   112   139   136    1
   113    20    21   ar
   114    20    18   ar
   115    55    53   ar
   116   136   137    1
   117    53    52    1
   118    21    19   ar
   119    18    15   ar
   120   146   137   am
   121   146   147    1
   122   152   151    1
   123   152   153    1
   124    41    40    1
   125   137   138    2
   126    52    49    1
   127   150   151    1
   128   150   147    1
   129    19    17   ar
   130     6     5    1
   131   147   148    1
   132    40    37    1
   133    15    17   ar
   134    15    13   ar
   135   148   149    2
   136     5     7    1
   137     5     2    1
   138    49    48    1
   139    49    50    1
   140    17    16   ar
   141    51    50    2
   142    37    38    1
   143    37    36    1
   144    13    12    1
   145    13    14   ar
   146    12     9    1
   147    46    47    1
   148    46    43    1
   149    48    44   am
   150    45    44    2
   151    39    38    2
   152     9     8    1
   153     9    10    1
   154     8     3   am
   155    44    43    1
   156     2     3    1
   157     2     1    1
   158    16    14   ar
   159    36    33   am
   160     3     4    2
   161    43    42    1
   162    10    11    2
   163    33    34    2
   164    33    32    1
   165    25    24    2
   166    32    31    1
   167    32    35    1
   168    30    29    1
   169    28    29    1
   170    28    27    1
   171    26    27    1
   172    26    23    1
   173    24    31   am
   174    24    23    1
   175    23    22    1
