@<TRIPOS>MOLECULE
tmp/1h35A01.pdb
 256 249 0 0 0
SMALL
GASTEIGER

@<TRIPOS>ATOM
      1  N         60.1560   60.3190   66.9000 N.3    27  LEU27      -0.1245
      2  CA        61.4200   60.9670   66.5780 C.3    27  LEU27       0.1561
      3  C         62.4830   60.4590   67.5400 C.2    27  LEU27       0.2260
      4  O         62.2870   60.4870   68.7550 O.2    27  LEU27      -0.2867
      5  CB        61.2720   62.4860   66.7090 C.3    27  LEU27       0.0270
      6  CG        62.4300   63.3650   66.2360 C.3    27  LEU27       0.0019
      7  CD1       62.6790   63.1420   64.7550 C.3    27  LEU27       0.0001
      8  CD2       62.0930   64.8190   66.4990 C.3    27  LEU27       0.0001
      9  N         67.4860   63.1630   76.8010 N.3    33  MET33      -0.1245
     10  CA        66.0950   63.5710   76.9520 C.3    33  MET33       0.1570
     11  C         65.5560   62.9010   78.2120 C.2    33  MET33       0.2261
     12  O         65.1850   63.5690   79.1780 O.2    33  MET33      -0.2867
     13  CB        65.2670   63.1110   75.7500 C.3    33  MET33       0.0387
     14  CG        65.7400   63.6230   74.3990 C.3    33  MET33       0.0595
     15  SD        65.4260   65.3740   74.1330 S.3    33  MET33      -0.1393
     16  CE        66.9500   66.0650   74.7360 C.3    33  MET33       0.0692
     17  N         75.3530   72.7340   79.4260 N.3   120  PHE120     -0.1241
     18  CA        74.1080   72.1460   79.8960 C.3   120  PHE120      0.1605
     19  C         74.3140   71.0480   80.9310 C.2   120  PHE120      0.2264
     20  O         73.7740   71.1180   82.0370 O.2   120  PHE120     -0.2867
     21  CB        73.3120   71.5930   78.7170 C.3   120  PHE120      0.0534
     22  CG        72.6610   72.6520   77.8730 C.ar  120  PHE120     -0.0203
     23  CD1       71.8770   73.6430   78.4570 C.ar  120  PHE120     -0.0042
     24  CD2       72.7940   72.6350   76.4890 C.ar  120  PHE120     -0.0042
     25  CE1       71.2330   74.5970   77.6750 C.ar  120  PHE120     -0.0003
     26  CE2       72.1520   73.5860   75.6970 C.ar  120  PHE120     -0.0003
     27  CZ        71.3710   74.5660   76.2920 C.ar  120  PHE120     -0.0000
     28  N         64.8860   78.1840   68.5770 N.3   160  TRP160     -0.1227
     29  CA        65.1170   77.0820   69.5060 C.3   160  TRP160      0.1737
     30  C         66.0390   77.4420   70.6690 C.2   160  TRP160      0.2595
     31  O         65.9910   76.8120   71.7270 O.2   160  TRP160     -0.2718
     32  CB        65.6850   75.8790   68.7480 C.3   160  TRP160      0.0564
     33  CG        66.9920   76.1470   68.0690 C.ar  160  TRP160      0.0003
     34  CD1       68.2250   76.2290   68.6550 C.ar  160  TRP160      0.0946
     35  CD2       67.1970   76.3850   66.6710 C.ar  160  TRP160      0.0152
     36  NE1       69.1840   76.5030   67.7080 N.ar  160  TRP160     -0.2442
     37  CE2       68.5800   76.6050   66.4820 C.ar  160  TRP160      0.0810
     38  CE3       66.3450   76.4360   65.5600 C.ar  160  TRP160      0.0012
     39  CZ2       69.1320   76.8720   65.2240 C.ar  160  TRP160      0.0191
     40  CZ3       66.8940   76.7030   64.3090 C.ar  160  TRP160      0.0001
     41  CH2       68.2770   76.9170   64.1540 C.ar  160  TRP160      0.0015
     42  N         66.8750   78.4550   70.4740 N.am  161  ALA161     -0.1980
     43  CA        67.8040   78.8890   71.5120 C.3   161  ALA161      0.1597
     44  C         67.2180   80.0350   72.3260 C.2   161  ALA161      0.2287
     45  O         67.4380   80.1360   73.5340 O.2   161  ALA161     -0.2864
     46  CB        69.1230   79.3190   70.8800 C.3   161  ALA161      0.0319
     47  N         64.9840   79.0550   75.2890 N.3   164  THR164     -0.1218
     48  CA        65.8530   78.4510   76.2870 C.3   164  THR164      0.1862
     49  C         66.5590   79.5190   77.1070 C.2   164  THR164      0.2287
     50  O         66.6060   79.4450   78.3350 O.2   164  THR164     -0.2866
     51  CB        66.9220   77.5760   75.6200 C.3   164  THR164      0.1770
     52  OG1       66.2980   76.6940   74.6790 O.3   164  THR164     -0.2211
     53  CG2       67.6650   76.7620   76.6660 C.3   164  THR164      0.0375
     54  N         59.6380   71.8360   71.6820 N.3   252  ILE252     -0.1245
     55  CA        60.9190   71.1630   71.8390 C.3   252  ILE252      0.1561
     56  C         61.2540   70.9560   73.3120 C.2   252  ILE252      0.2260
     57  O         60.8810   71.7480   74.1780 O.2   252  ILE252     -0.2867
     58  CB        62.0510   71.9410   71.1470 C.3   252  ILE252      0.0252
     59  CG1       62.1970   73.3280   71.7620 C.3   252  ILE252      0.0019
     60  CG2       61.7450   72.0660   69.6660 C.3   252  ILE252      0.0019
     61  CD1       63.3080   74.1410   71.1540 C.3   252  ILE252      0.0001
     62  N         64.1380   71.1200   75.3500 N.3   254  PRO254     -0.2116
     63  CA        64.8830   72.1270   76.1160 C.3   254  PRO254      0.1372
     64  C         64.1270   73.2530   76.8360 C.2   254  PRO254      0.2244
     65  O         63.9680   73.2160   78.0590 O.2   254  PRO254     -0.2868
     66  CB        65.8940   72.6500   75.0970 C.3   254  PRO254      0.0268
     67  CG        66.1320   71.4550   74.2330 C.3   254  PRO254      0.0207
     68  CD        64.7320   70.9510   74.0130 C.3   254  PRO254      0.0892
     69  N         62.2450   64.3760   71.6000 N.3   297  ALA297     -0.1231
     70  CA        62.8400   65.7070   71.6030 C.3   297  ALA297      0.1694
     71  C         61.8470   66.6860   70.9740 C.2   297  ALA297      0.2592
     72  O         61.8710   67.8850   71.2540 O.2   297  ALA297     -0.2718
     73  CB        64.1410   65.6960   70.8160 C.3   297  ALA297      0.0304
     74  N         60.9750   66.1530   70.1230 N.am  298  SER298     -0.1952
     75  CA        59.9460   66.9330   69.4440 C.3   298  SER298      0.1924
     76  C         59.0740   65.9620   68.6600 C.2   298  SER298      0.2314
     77  O         59.4120   64.7870   68.5400 O.2   298  SER298     -0.2863
     78  CB        60.5760   67.9450   68.4890 C.3   298  SER298      0.2116
     79  OG        59.5760   68.7160   67.8510 O.3   298  SER298     -0.2180
     80  N         55.0180   67.3590   59.4850 N.3   303  TRP303     -0.1241
     81  CA        56.1100   66.9630   58.6020 C.3   303  TRP303      0.1605
     82  C         55.8730   65.5900   57.9670 C.2   303  TRP303      0.2264
     83  O         55.9620   65.4340   56.7470 O.2   303  TRP303     -0.2867
     84  CB        57.4210   66.9530   59.3880 C.3   303  TRP303      0.0550
     85  CG        58.6210   66.6700   58.5490 C.ar  303  TRP303      0.0003
     86  CD1       59.4370   65.5800   58.6250 C.ar  303  TRP303      0.0946
     87  CD2       59.1440   67.4940   57.5030 C.ar  303  TRP303      0.0152
     88  NE1       60.4400   65.6740   57.6890 N.ar  303  TRP303     -0.2442
     89  CE2       60.2830   66.8390   56.9870 C.ar  303  TRP303      0.0810
     90  CE3       58.7610   68.7220   56.9490 C.ar  303  TRP303      0.0012
     91  CZ2       61.0440   67.3720   55.9420 C.ar  303  TRP303      0.0191
     92  CZ3       59.5170   69.2510   55.9100 C.ar  303  TRP303      0.0001
     93  CH2       60.6470   68.5740   55.4180 C.ar  303  TRP303      0.0015
     94  N         55.9100   72.3590   62.7740 N.3   356  PHE356     -0.1241
     95  CA        56.4030   70.9900   62.7040 C.3   356  PHE356      0.1605
     96  C         55.4580   70.0560   63.4520 C.2   356  PHE356      0.2264
     97  O         55.0620   69.0070   62.9400 O.2   356  PHE356     -0.2867
     98  CB        57.8080   70.9430   63.3210 C.3   356  PHE356      0.0534
     99  CG        58.4890   69.6020   63.2280 C.ar  356  PHE356     -0.0203
    100  CD1       58.7210   69.0020   61.9940 C.ar  356  PHE356     -0.0042
    101  CD2       58.9590   68.9720   64.3780 C.ar  356  PHE356     -0.0042
    102  CE1       59.4150   67.8000   61.9100 C.ar  356  PHE356     -0.0003
    103  CE2       59.6520   67.7710   64.3040 C.ar  356  PHE356     -0.0003
    104  CZ        59.8830   67.1860   63.0690 C.ar  356  PHE356     -0.0000
    105  N         57.7550   77.0230   60.5710 N.3   365  ASP365     -0.1239
    106  CA        59.0320   76.9530   59.8760 C.3   365  ASP365      0.1674
    107  C         58.8310   76.8920   58.3700 C.2   365  ASP365      0.2266
    108  O         57.8530   76.3260   57.8780 O.2   365  ASP365     -0.2867
    109  CB        59.8470   75.7400   60.3440 C.3   365  ASP365      0.1410
    110  CG        59.1620   74.4220   60.0430 C.2   365  ASP365      0.3668
    111  OD1       58.1380   74.1210   60.6890 O.co2 365  ASP365     -0.2456
    112  OD2       59.6470   73.6890   59.1550 O.co2 365  ASP365     -0.2456
    113  N         60.4140   75.1960   56.1420 N.3   367  ASP367     -0.1225
    114  CA        60.4540   73.8320   55.6230 C.3   367  ASP367      0.1805
    115  C         59.0690   73.1970   55.5570 C.2   367  ASP367      0.2597
    116  O         58.6200   72.7900   54.4830 O.2   367  ASP367     -0.2718
    117  CB        61.3800   72.9610   56.4780 C.3   367  ASP367      0.1424
    118  CG        62.3330   72.1300   55.6370 C.2   367  ASP367      0.3668
    119  OD1       61.8860   71.5700   54.6130 O.co2 367  ASP367     -0.2456
    120  OD2       63.5240   72.0310   56.0020 O.co2 367  ASP367     -0.2456
    121  N         58.4010   73.1060   56.7050 N.am  368  ASP368     -0.1974
    122  CA        57.0620   72.5230   56.7660 C.3   368  ASP368      0.1709
    123  C         56.1050   73.3000   55.8740 C.2   368  ASP368      0.2293
    124  O         55.3780   72.7230   55.0650 O.2   368  ASP368     -0.2864
    125  CB        56.5390   72.5320   58.2040 C.3   368  ASP368      0.1436
    126  CG        57.0940   71.3930   59.0310 C.2   368  ASP368      0.3671
    127  OD1       56.7730   70.2250   58.7260 O.co2 368  ASP368     -0.2456
    128  OD2       57.8520   71.6650   59.9830 O.co2 368  ASP368     -0.2456
    129  N         65.1070   78.6900   58.6180 N.3   410  ALA410     -0.1231
    130  CA        64.0790   77.7780   59.0960 C.3   410  ALA410      0.1694
    131  C         62.9280   78.5000   59.7850 C.2   410  ALA410      0.2592
    132  O         61.7580   78.2590   59.4760 O.2   410  ALA410     -0.2718
    133  CB        64.6930   76.7610   60.0450 C.3   410  ALA410      0.0304
    134  N         63.2650   79.3910   60.7110 N.am  411  TYR411     -0.1976
    135  CA        62.2570   80.1220   61.4650 C.3   411  TYR411      0.1639
    136  C         62.2410   81.6300   61.2540 C.2   411  TYR411      0.2290
    137  O         61.1740   82.2230   61.0940 O.2   411  TYR411     -0.2864
    138  CB        62.4300   79.8200   62.9520 C.3   411  TYR411      0.0560
    139  CG        62.1400   78.3820   63.3010 C.ar  411  TYR411     -0.0198
    140  CD1       60.8380   77.8900   63.2670 C.ar  411  TYR411     -0.0009
    141  CD2       63.1660   77.5070   63.6540 C.ar  411  TYR411     -0.0009
    142  CE1       60.5610   76.5660   63.5790 C.ar  411  TYR411      0.0417
    143  CE2       62.9000   76.1780   63.9680 C.ar  411  TYR411      0.0417
    144  CZ        61.5950   75.7170   63.9290 C.ar  411  TYR411      0.1957
    145  OH        61.3120   74.4130   64.2550 O.3   411  TYR411     -0.2866
    146  N         77.1720   74.2890   72.5000 N.3   428  PHE428     -0.1241
    147  CA        76.4780   73.1050   72.0000 C.3   428  PHE428      0.1605
    148  C         75.4890   73.3940   70.8690 C.2   428  PHE428      0.2264
    149  O         74.5720   74.1980   71.0240 O.2   428  PHE428     -0.2867
    150  CB        75.7360   72.4170   73.1460 C.3   428  PHE428      0.0534
    151  CG        75.0040   71.1770   72.7310 C.ar  428  PHE428     -0.0203
    152  CD1       75.6900   69.9890   72.5210 C.ar  428  PHE428     -0.0042
    153  CD2       73.6320   71.2040   72.5200 C.ar  428  PHE428     -0.0042
    154  CE1       75.0180   68.8430   72.1070 C.ar  428  PHE428     -0.0003
    155  CE2       72.9530   70.0650   72.1060 C.ar  428  PHE428     -0.0003
    156  CZ        73.6470   68.8820   71.8980 C.ar  428  PHE428     -0.0000
    157  N         73.7740   74.5530   67.1610 N.3   430  GLU430     -0.1245
    158  CA        73.6200   75.8460   66.5020 C.3   430  GLU430      0.1567
    159  C         72.9470   76.8320   67.4450 C.2   430  GLU430      0.2260
    160  O         72.1610   76.4400   68.3070 O.2   430  GLU430     -0.2867
    161  CB        72.7690   75.6950   65.2410 C.3   430  GLU430      0.0388
    162  CG        73.3740   74.7790   64.2010 C.3   430  GLU430      0.1160
    163  CD        74.6270   75.3580   63.5860 C.2   430  GLU430      0.3649
    164  OE1       74.5170   76.3760   62.8700 O.co2 430  GLU430     -0.2457
    165  OE2       75.7200   74.8000   63.8230 O.co2 430  GLU430     -0.2457
    166  N         66.7500   73.8290   52.9210 N.3   439  VAL439     -0.1245
    167  CA        65.4900   74.5410   53.1140 C.3   439  VAL439      0.1561
    168  C         65.1430   75.2840   51.8300 C.2   439  VAL439      0.2260
    169  O         64.0300   75.1810   51.3140 O.2   439  VAL439     -0.2867
    170  CB        65.5860   75.5650   54.2600 C.3   439  VAL439      0.0252
    171  CG1       64.2660   76.3050   54.3980 C.3   439  VAL439      0.0019
    172  CG2       65.9380   74.8620   55.5610 C.3   439  VAL439      0.0019
    173  N         69.4490   69.8540   57.7380 N.3   480  TRP480     -0.1241
    174  CA        68.5020   69.1140   58.5650 C.3   480  TRP480      0.1605
    175  C         68.3490   67.6550   58.1520 C.2   480  TRP480      0.2264
    176  O         67.3260   67.0270   58.4180 O.2   480  TRP480     -0.2867
    177  CB        67.1390   69.8100   58.5450 C.3   480  TRP480      0.0550
    178  CG        67.2110   71.2530   58.9540 C.ar  480  TRP480      0.0003
    179  CD1       67.3910   72.3290   58.1340 C.ar  480  TRP480      0.0946
    180  CD2       67.1680   71.7710   60.2910 C.ar  480  TRP480      0.0152
    181  NE1       67.4660   73.4830   58.8750 N.ar  480  TRP480     -0.2442
    182  CE2       67.3330   73.1690   60.2020 C.ar  480  TRP480      0.0810
    183  CE3       67.0090   71.1870   61.5550 C.ar  480  TRP480      0.0012
    184  CZ2       67.3430   73.9950   61.3300 C.ar  480  TRP480      0.0191
    185  CZ3       67.0190   72.0090   62.6780 C.ar  480  TRP480      0.0001
    186  CH2       67.1860   73.3970   62.5560 C.ar  480  TRP480      0.0015
    187  N         71.6750   63.9460   51.1970 N.3   486  TYR486     -0.1241
    188  CA        70.4150   64.6020   51.5220 C.3   486  TYR486      0.1605
    189  C         70.3080   65.9470   50.8090 C.2   486  TYR486      0.2264
    190  O         69.3160   66.2300   50.1320 O.2   486  TYR486     -0.2867
    191  CB        70.3140   64.8050   53.0390 C.3   486  TYR486      0.0534
    192  CG        69.0720   65.5440   53.4810 C.ar  486  TYR486     -0.0201
    193  CD1       67.8040   65.0100   53.2600 C.ar  486  TYR486     -0.0009
    194  CD2       69.1650   66.7860   54.1050 C.ar  486  TYR486     -0.0009
    195  CE1       66.6570   65.6950   53.6490 C.ar  486  TYR486      0.0417
    196  CE2       68.0250   67.4800   54.4990 C.ar  486  TYR486      0.0417
    197  CZ        66.7750   66.9280   54.2670 C.ar  486  TYR486      0.1957
    198  OH        65.6440   67.6130   54.6430 O.3   486  TYR486     -0.2866
    199  N         69.9230   67.3760   63.6210 N.3   591  GLY591     -0.1210
    200  CA        69.4060   68.4460   64.4550 C.3   591  GLY591      0.1956
    201  C         70.4180   69.5740   64.4150 C.2   591  GLY591      0.2611
    202  O         70.1220   70.6810   63.9640 O.2   591  GLY591     -0.2717
    203  N         71.6240   69.2770   64.8880 N.am  592  PHE592     -0.1976
    204  CA        72.7270   70.2320   64.8920 C.3   592  PHE592      0.1639
    205  C         73.9800   69.5170   64.4140 C.2   592  PHE592      0.2290
    206  O         74.5020   68.6430   65.1070 O.2   592  PHE592     -0.2864
    207  CB        72.9780   70.7820   66.2940 C.3   592  PHE592      0.0560
    208  CG        71.8340   71.5660   66.8480 C.ar  592  PHE592     -0.0200
    209  CD1       71.1660   72.4970   66.0610 C.ar  592  PHE592     -0.0042
    210  CD2       71.4390   71.3970   68.1650 C.ar  592  PHE592     -0.0042
    211  CE1       70.1190   73.2490   66.5810 C.ar  592  PHE592     -0.0003
    212  CE2       70.3960   72.1440   68.6930 C.ar  592  PHE592     -0.0003
    213  CZ        69.7340   73.0720   67.9000 C.ar  592  PHE592     -0.0000
    214  N         73.8850   67.0450   67.5080 N.3   596  PHE596     -0.1241
    215  CA        72.5750   66.4690   67.7870 C.3   596  PHE596      0.1605
    216  C         71.9930   65.8290   66.5350 C.2   596  PHE596      0.2264
    217  O         71.7960   66.5010   65.5220 O.2   596  PHE596     -0.2867
    218  CB        71.6370   67.5670   68.2820 C.3   596  PHE596      0.0534
    219  CG        70.4000   67.0540   68.9450 C.ar  596  PHE596     -0.0203
    220  CD1       70.4790   66.3750   70.1550 C.ar  596  PHE596     -0.0042
    221  CD2       69.1520   67.2600   68.3670 C.ar  596  PHE596     -0.0042
    222  CE1       69.3300   65.9090   70.7850 C.ar  596  PHE596     -0.0003
    223  CE2       67.9950   66.7980   68.9870 C.ar  596  PHE596     -0.0003
    224  CZ        68.0830   66.1210   70.1990 C.ar  596  PHE596     -0.0000
    225  N         68.9870   63.0780   64.7220 N.3   598  LEU598     -0.1245
    226  CA        67.6390   62.5640   64.8780 C.3   598  LEU598      0.1561
    227  C         67.3310   61.3740   63.9880 C.2   598  LEU598      0.2260
    228  O         67.9400   61.1920   62.9330 O.2   598  LEU598     -0.2867
    229  CB        66.6320   63.6700   64.5770 C.3   598  LEU598      0.0270
    230  CG        66.7290   64.9280   65.4350 C.3   598  LEU598      0.0019
    231  CD1       65.8330   66.0050   64.8490 C.3   598  LEU598      0.0001
    232  CD2       66.3360   64.6050   66.8660 C.3   598  LEU598      0.0001
    233  N         64.2740   59.8960   61.9850 N.3   600  TYR600     -0.1241
    234  CA        62.9110   60.0660   61.4910 C.3   600  TYR600      0.1605
    235  C         62.3430   58.7160   61.0640 C.2   600  TYR600      0.2264
    236  O         62.6600   58.1990   59.9930 O.2   600  TYR600     -0.2867
    237  CB        62.8750   61.0490   60.3160 C.3   600  TYR600      0.0534
    238  CG        63.0490   62.5040   60.7100 C.ar  600  TYR600     -0.0201
    239  CD1       64.2610   62.9720   61.2200 C.ar  600  TYR600     -0.0009
    240  CD2       61.9980   63.4140   60.5770 C.ar  600  TYR600     -0.0009
    241  CE1       64.4230   64.3110   61.5870 C.ar  600  TYR600      0.0417
    242  CE2       62.1490   64.7530   60.9410 C.ar  600  TYR600      0.0417
    243  CZ        63.3640   65.1930   61.4450 C.ar  600  TYR600      0.1957
    244  OH        63.5190   66.5110   61.8070 O.3   600  TYR600     -0.2866
    245  N         60.8250   58.2890   57.4230 N.3   603  TYR603     -0.1241
    246  CA        61.7520   58.4090   56.3000 C.3   603  TYR603      0.1605
    247  C         61.9680   57.1030   55.5450 C.2   603  TYR603      0.2264
    248  O         61.8450   57.0550   54.3230 O.2   603  TYR603     -0.2867
    249  CB        63.1000   58.9430   56.7930 C.3   603  TYR603      0.0534
    250  CG        63.1560   60.4480   56.9680 C.ar  603  TYR603     -0.0201
    251  CD1       61.9900   61.2020   57.1180 C.ar  603  TYR603     -0.0009
    252  CD2       64.3780   61.1160   57.0050 C.ar  603  TYR603     -0.0009
    253  CE1       62.0430   62.5850   57.3000 C.ar  603  TYR603      0.0417
    254  CE2       64.4420   62.4960   57.1900 C.ar  603  TYR603      0.0417
    255  CZ        63.2730   63.2220   57.3370 C.ar  603  TYR603      0.1957
    256  OH        63.3440   64.5820   57.5290 O.3   603  TYR603     -0.2866
@<TRIPOS>BOND
     1   190   189    2
     2   189   188    1
     3   187   188    1
     4   169   168    2
     5   188   191    1
     6   168   167    1
     7   166   167    1
     8   191   192    1
     9   167   170    1
    10   193   192   ar
    11   193   195   ar
    12   192   194   ar
    13   195   197   ar
    14   194   196   ar
    15   170   171    1
    16   170   172    1
    17   197   196   ar
    18   197   198    1
    19   248   247    2
    20   116   115    2
    21   119   118   ar
    22   124   123    2
    23    93    92   ar
    24    93    91   ar
    25   247   246    1
    26   115   114    1
    27   115   121   am
    28   114   113    1
    29   114   117    1
    30   118   120   ar
    31   118   117    1
    32   123   122    1
    33    92    90   ar
    34    91    89   ar
    35   246   249    1
    36   246   245    1
    37   121   122    1
    38    83    82    2
    39   122   125    1
    40   249   250    1
    41    90    87   ar
    42   250   252   ar
    43   250   251   ar
    44    89    87   ar
    45    89    88   ar
    46   252   254   ar
    47   251   253   ar
    48   254   255   ar
    49   253   255   ar
    50   255   256    1
    51    87    85   ar
    52    88    86   ar
    53   173   174    1
    54   108   107    2
    55    82    81    1
    56   179   181   ar
    57   179   178   ar
    58   175   176    2
    59   175   174    1
    60   125   126    1
    61   107   106    1
    62   177   174    1
    63   177   178    1
    64    85    86   ar
    65    85    84    1
    66    81    84    1
    67    81    80    1
    68   129   130    1
    69   127   126   ar
    70   181   182   ar
    71   178   180   ar
    72   126   128   ar
    73   130   131    1
    74   130   133    1
    75   112   110   ar
    76   132   131    2
    77   131   134   am
    78   106   109    1
    79   106   105    1
    80   236   235    2
    81   110   109    1
    82   110   111   ar
    83   182   180   ar
    84   182   184   ar
    85   180   183   ar
    86   237   238    1
    87   237   234    1
    88   240   238   ar
    89   240   242   ar
    90   238   239   ar
    91   134   135    1
    92   242   243   ar
    93   235   234    1
    94   137   136    2
    95   239   241   ar
    96   136   135    1
    97   184   186   ar
    98   243   241   ar
    99   243   244    1
   100   135   138    1
   101   234   233    1
   102   183   185   ar
   103   102   100   ar
   104   102   104   ar
   105   100    99   ar
   106   186   185   ar
   107    95    94    1
   108    95    98    1
   109    95    96    1
   110   164   163   ar
   111   228   227    2
   112    97    96    2
   113   138   139    1
   114   104   103   ar
   115    99    98    1
   116    99   101   ar
   117   140   139   ar
   118   140   142   ar
   119   139   141   ar
   120   142   144   ar
   121   163   165   ar
   122   163   162    1
   123   199   200    1
   124   141   143   ar
   125   144   143   ar
   126   144   145    1
   127   202   201    2
   128   227   226    1
   129    41    40   ar
   130    41    39   ar
   131   162   161    1
   132   103   101   ar
   133    40    38   ar
   134   205   204    1
   135   205   206    2
   136   201   200    1
   137   201   203   am
   138   229   226    1
   139   229   230    1
   140   225   226    1
   141     7     6    1
   142   231   230    1
   143   203   204    1
   144   204   207    1
   145    39    37   ar
   146   161   158    1
   147   230   232    1
   148   217   216    2
   149    38    35   ar
   150   209   211   ar
   151   209   208   ar
   152     6     8    1
   153     6     5    1
   154   207   208    1
   155    37    35   ar
   156    37    36   ar
   157   158   157    1
   158   158   159    1
   159   216   215    1
   160     2     5    1
   161     2     1    1
   162     2     3    1
   163   211   213   ar
   164    35    33   ar
   165   208   210   ar
   166   159   160    2
   167   214   215    1
   168     3     4    2
   169    36    34   ar
   170   215   218    1
   171    79    78    1
   172   213   212   ar
   173    33    34   ar
   174    33    32    1
   175   210   212   ar
   176   218   219    1
   177   221   219   ar
   178   221   223   ar
   179    78    75    1
   180    77    76    2
   181    28    29    1
   182    76    75    1
   183    32    29    1
   184   219   220   ar
   185   223   224   ar
   186    75    74    1
   187    29    30    1
   188    60    58    1
   189    74    71   am
   190   220   222   ar
   191   224   222   ar
   192    42    30   am
   193    42    43    1
   194    30    31    2
   195    73    70    1
   196   148   149    2
   197   148   147    1
   198    46    43    1
   199    71    72    2
   200    71    70    1
   201    58    59    1
   202    58    55    1
   203    61    59    1
   204    43    44    1
   205    69    70    1
   206    54    55    1
   207    55    56    1
   208   156   155   ar
   209   156   154   ar
   210   147   146    1
   211   147   150    1
   212   155   153   ar
   213   154   152   ar
   214    44    45    2
   215   153   151   ar
   216   152   151   ar
   217   151   150    1
   218    56    57    2
   219    68    67    1
   220    68    62    1
   221    15    14    1
   222    15    16    1
   223    67    66    1
   224    14    13    1
   225    52    51    1
   226    66    63    1
   227    47    48    1
   228    62    63    1
   229    51    48    1
   230    51    53    1
   231    26    27   ar
   232    26    24   ar
   233    13    10    1
   234    63    64    1
   235    48    49    1
   236    27    25   ar
   237    24    22   ar
   238     9    10    1
   239    64    65    2
   240    10    11    1
   241    49    50    2
   242    25    23   ar
   243    22    23   ar
   244    22    21    1
   245    11    12    2
   246    21    18    1
   247    17    18    1
   248    18    19    1
   249    19    20    2
