@<TRIPOS>MOLECULE
tmp/1h36C01.pdb
 255 250 0 0 0
SMALL
GASTEIGER

@<TRIPOS>ATOM
      1  N         96.8360   38.3660   67.3100 N.3    27  LEU27      -0.1245
      2  CA        96.7270   36.9550   66.9670 C.3    27  LEU27       0.1561
      3  C         95.7760   36.2870   67.9500 C.2    27  LEU27       0.2260
      4  O         96.0260   36.2780   69.1530 O.2    27  LEU27      -0.2867
      5  CB        98.1020   36.2880   67.0350 C.3    27  LEU27       0.0270
      6  CG        98.1860   34.8330   66.5670 C.3    27  LEU27       0.0019
      7  CD1       97.7800   34.7400   65.1040 C.3    27  LEU27       0.0001
      8  CD2       99.6040   34.3170   66.7670 C.3    27  LEU27       0.0001
      9  N         95.1740   30.5810   77.1760 N.3    33  MET33      -0.1245
     10  CA        96.2400   31.5610   77.3550 C.3    33  MET33       0.1570
     11  C         95.9580   32.3860   78.6030 C.2    33  MET33       0.2261
     12  O         96.7280   32.3690   79.5640 O.2    33  MET33      -0.2867
     13  CB        96.3190   32.4930   76.1440 C.3    33  MET33       0.0387
     14  CG        96.5680   31.7950   74.8130 C.3    33  MET33       0.0595
     15  SD        98.2060   31.0540   74.6630 S.3    33  MET33      -0.1393
     16  CE        97.8710   29.3790   75.1780 C.3    33  MET33       0.0692
     17  N         94.0180   16.8170   78.7320 N.3   118  ARG118     -0.1245
     18  CA        95.3700   16.6600   78.2040 C.3   118  ARG118      0.1563
     19  C         96.3870   16.6900   79.3370 C.2   118  ARG118      0.2260
     20  O         96.0360   16.9420   80.4910 O.2   118  ARG118     -0.2867
     21  CB        95.6790   17.7900   77.2210 C.3   118  ARG118      0.0307
     22  CG        95.6080   19.1720   77.8520 C.3   118  ARG118      0.0489
     23  CD        95.9850   20.2730   76.8750 C.3   118  ARG118      0.2205
     24  NE        95.9470   21.5870   77.5130 N.pl3 118  ARG118     -0.0865
     25  CZ        96.2930   22.7200   76.9130 C.cat 118  ARG118      0.5346
     26  NH1       96.7070   22.7080   75.6530 N.pl3 118  ARG118      0.1354
     27  NH2       96.2250   23.8670   77.5740 N.pl3 118  ARG118      0.1354
     28  N         99.1500   18.8330   79.8570 N.3   120  PHE120     -0.1241
     29  CA        99.3570   20.1770   80.3830 C.3   120  PHE120      0.1605
     30  C         98.2980   20.5970   81.3920 C.2   120  PHE120      0.2264
     31  O         98.6260   21.0680   82.4810 O.2   120  PHE120     -0.2867
     32  CB        99.4080   21.1910   79.2410 C.3   120  PHE120      0.0534
     33  CG       100.6730   21.1260   78.4360 C.ar  120  PHE120     -0.0203
     34  CD1      101.9100   21.3130   79.0480 C.ar  120  PHE120     -0.0042
     35  CD2      100.6350   20.8680   77.0690 C.ar  120  PHE120     -0.0042
     36  CE1      103.0900   21.2430   78.3120 C.ar  120  PHE120     -0.0003
     37  CE2      101.8090   20.7950   76.3260 C.ar  120  PHE120     -0.0003
     38  CZ       103.0390   20.9840   76.9470 C.ar  120  PHE120     -0.0000
     39  N        109.5690   24.8660   69.1140 N.3   160  TRP160     -0.1241
     40  CA       108.5370   25.2670   70.0620 C.3   160  TRP160      0.1605
     41  C        108.3920   24.3080   71.2410 C.2   160  TRP160      0.2264
     42  O        108.1270   24.7370   72.3630 O.2   160  TRP160     -0.2867
     43  CB       107.1940   25.4140   69.3370 C.3   160  TRP160      0.0550
     44  CG       106.7270   24.1690   68.6360 C.ar  160  TRP160      0.0003
     45  CD1      106.1590   23.0640   69.2090 C.ar  160  TRP160      0.0946
     46  CD2      106.7990   23.8990   67.2290 C.ar  160  TRP160      0.0152
     47  NE1      105.8740   22.1250   68.2470 N.ar  160  TRP160     -0.2442
     48  CE2      106.2560   22.6100   67.0230 C.ar  160  TRP160      0.0810
     49  CE3      107.2710   24.6200   66.1220 C.ar  160  TRP160      0.0012
     50  CZ2      106.1730   22.0260   65.7520 C.ar  160  TRP160      0.0191
     51  CZ3      107.1890   24.0390   64.8590 C.ar  160  TRP160      0.0001
     52  CH2      106.6430   22.7540   64.6870 C.ar  160  TRP160      0.0015
     53  N        110.2140   24.2230   75.8560 N.3   164  THR164     -0.1218
     54  CA       109.2100   23.8210   76.8330 C.3   164  THR164      0.1862
     55  C        109.6970   22.6280   77.6450 C.2   164  THR164      0.2287
     56  O        109.5680   22.6010   78.8700 O.2   164  THR164     -0.2866
     57  CB       107.8880   23.4370   76.1430 C.3   164  THR164      0.1770
     58  OG1      107.4480   24.5220   75.3190 O.3   164  THR164     -0.2211
     59  CG2      106.8140   23.1290   77.1800 C.3   164  THR164      0.0375
     60  N        106.8440   32.5940   72.1600 N.3   252  ILE252     -0.1231
     61  CA       105.5830   31.8930   72.3530 C.3   252  ILE252      0.1692
     62  C        105.2310   31.7780   73.8350 C.2   252  ILE252      0.2592
     63  O        106.1050   31.7880   74.7020 O.2   252  ILE252     -0.2718
     64  CB       105.6160   30.4890   71.7070 C.3   252  ILE252      0.0266
     65  CG1      106.7760   29.6720   72.2720 C.3   252  ILE252      0.0019
     66  CG2      105.7610   30.6190   70.1990 C.3   252  ILE252      0.0020
     67  CD1      106.8380   28.2560   71.7350 C.3   252  ILE252      0.0001
     68  N        103.9370   31.6650   74.1060 N.am  253  GLN253     -0.1966
     69  CA       103.4020   31.5890   75.4610 C.3   253  GLN253      0.1718
     70  C        103.9360   30.4850   76.3880 C.2   253  GLN253      0.2458
     71  O        104.4500   30.7740   77.4690 O.2   253  GLN253     -0.2730
     72  CB       101.8700   31.5140   75.3680 C.3   253  GLN253      0.0407
     73  CG       101.1050   31.6230   76.6800 C.3   253  GLN253      0.0908
     74  CD       100.9320   30.2900   77.3800 C.2   253  GLN253      0.2608
     75  OE1      100.6270   29.2750   76.7510 O.2   253  GLN253     -0.2717
     76  NE2      101.1080   30.2890   78.6950 N.am  253  GLN253     -0.0878
     77  N        103.8380   29.2130   75.9730 N.am  254  PRO254     -0.2727
     78  CA       104.2970   28.0670   76.7680 C.3   254  PRO254      0.1402
     79  C        105.6710   28.1300   77.4450 C.2   254  PRO254      0.2269
     80  O        105.7570   28.2980   78.6640 O.2   254  PRO254     -0.2865
     81  CB       104.1790   26.9050   75.7860 C.3   254  PRO254      0.0296
     82  CG       103.0240   27.3100   74.9540 C.3   254  PRO254      0.0237
     83  CD       103.3310   28.7540   74.6690 C.3   254  PRO254      0.0939
     84  N         99.0410   34.5320   72.0000 N.3   297  ALA297     -0.1231
     85  CA        99.8550   33.3230   72.0310 C.3   297  ALA297      0.1694
     86  C        101.2160   33.6430   71.4310 C.2   297  ALA297      0.2592
     87  O        102.2160   32.9920   71.7340 O.2   297  ALA297     -0.2718
     88  CB        99.1790   32.2200   71.2340 C.3   297  ALA297      0.0304
     89  N        101.2330   34.6600   70.5760 N.am  298  SER298     -0.1952
     90  CA       102.4500   35.1140   69.9140 C.3   298  SER298      0.1924
     91  C        102.1120   36.3500   69.0870 C.2   298  SER298      0.2314
     92  O        100.9410   36.6660   68.8840 O.2   298  SER298     -0.2863
     93  CB       103.0080   34.0130   69.0070 C.3   298  SER298      0.2116
     94  OG       104.2450   34.3990   68.4330 O.3   298  SER298     -0.2180
     95  N        105.6550   39.0890   59.9640 N.3   303  TRP303     -0.1241
     96  CA       104.7670   38.3570   59.0670 C.3   303  TRP303      0.1605
     97  C        103.7350   39.2750   58.4120 C.2   303  TRP303      0.2264
     98  O        103.5720   39.2660   57.1910 O.2   303  TRP303     -0.2867
     99  CB       104.0570   37.2460   59.8430 C.3   303  TRP303      0.0550
    100  CG       103.1780   36.3720   59.0050 C.ar  303  TRP303      0.0003
    101  CD1      101.8370   36.1670   59.1620 C.ar  303  TRP303      0.0946
    102  CD2      103.5800   35.5630   57.8930 C.ar  303  TRP303      0.0152
    103  NE1      101.3790   35.2790   58.2190 N.ar  303  TRP303     -0.2442
    104  CE2      102.4270   34.8920   57.4270 C.ar  303  TRP303      0.0810
    105  CE3      104.8010   35.3380   57.2460 C.ar  303  TRP303      0.0012
    106  CZ2      102.4600   34.0120   56.3420 C.ar  303  TRP303      0.0191
    107  CZ3      104.8320   34.4610   56.1680 C.ar  303  TRP303      0.0001
    108  CH2      103.6680   33.8090   55.7280 C.ar  303  TRP303      0.0015
    109  N        109.3570   35.6800   63.3330 N.3   356  PHE356     -0.1241
    110  CA       107.9270   35.9590   63.2930 C.3   356  PHE356      0.1605
    111  C        107.6340   37.2660   64.0160 C.2   356  PHE356      0.2264
    112  O        106.9540   38.1440   63.4850 O.2   356  PHE356     -0.2867
    113  CB       107.1810   34.7980   63.9620 C.3   356  PHE356      0.0534
    114  CG       105.6900   34.8270   63.7800 C.ar  356  PHE356     -0.0203
    115  CD1      105.1290   34.9010   62.5090 C.ar  356  PHE356     -0.0042
    116  CD2      104.8440   34.7130   64.8800 C.ar  356  PHE356     -0.0042
    117  CE1      103.7460   34.8540   62.3370 C.ar  356  PHE356     -0.0003
    118  CE2      103.4630   34.6640   64.7200 C.ar  356  PHE356     -0.0003
    119  CZ       102.9120   34.7330   63.4460 C.ar  356  PHE356     -0.0000
    120  N        112.5580   31.6230   61.0260 N.3   365  ASP365     -0.1239
    121  CA       111.8670   30.5730   60.2900 C.3   365  ASP365      0.1674
    122  C        111.9370   30.8220   58.7920 C.2   365  ASP365      0.2266
    123  O        112.0460   31.9660   58.3410 O.2   365  ASP365     -0.2867
    124  CB       110.4020   30.4750   60.7210 C.3   365  ASP365      0.1410
    125  CG       109.6130   31.7180   60.3810 C.2   365  ASP365      0.3668
    126  OD1      109.7700   32.7360   61.0870 O.co2 365  ASP365     -0.2456
    127  OD2      108.8420   31.6750   59.3990 O.co2 365  ASP365     -0.2456
    128  N        109.5690   30.3290   56.4390 N.3   367  ASP367     -0.1225
    129  CA       108.3870   31.0060   55.9210 C.3   367  ASP367      0.1805
    130  C        108.5390   32.5280   55.9510 C.2   367  ASP367      0.2597
    131  O        108.4080   33.1880   54.9170 O.2   367  ASP367     -0.2718
    132  CB       107.1470   30.5800   56.7150 C.3   367  ASP367      0.1424
    133  CG       105.8980   30.5070   55.8500 C.2   367  ASP367      0.3668
    134  OD1      105.5320   31.5340   55.2440 O.co2 367  ASP367     -0.2456
    135  OD2      105.2830   29.4220   55.7750 O.co2 367  ASP367     -0.2456
    136  N        108.8120   33.0870   57.1290 N.am  368  ASP368     -0.1974
    137  CA       108.9830   34.5310   57.2530 C.3   368  ASP368      0.1709
    138  C        110.1340   35.0020   56.3750 C.2   368  ASP368      0.2293
    139  O        109.9820   35.9360   55.5880 O.2   368  ASP368     -0.2864
    140  CB       109.2590   34.9220   58.7080 C.3   368  ASP368      0.1436
    141  CG       107.9890   35.0990   59.5160 C.2   368  ASP368      0.3671
    142  OD1      107.1750   35.9770   59.1600 O.co2 368  ASP368     -0.2456
    143  OD2      107.8030   34.3640   60.5080 O.co2 368  ASP368     -0.2456
    144  N        110.1040   24.5540   59.0540 N.3   410  ALA410     -0.1231
    145  CA       109.8040   25.8940   59.5360 C.3   410  ALA410      0.1694
    146  C        110.9870   26.5010   60.2730 C.2   410  ALA410      0.2592
    147  O        111.3940   27.6270   59.9910 O.2   410  ALA410     -0.2718
    148  CB       108.5860   25.8590   60.4520 C.3   410  ALA410      0.0304
    149  N        111.5440   25.7410   61.2110 N.am  411  TYR411     -0.1976
    150  CA       112.6630   26.2190   62.0080 C.3   411  TYR411      0.1639
    151  C        113.9460   25.4030   61.8690 C.2   411  TYR411      0.2290
    152  O        115.0440   25.9530   61.9620 O.2   411  TYR411     -0.2864
    153  CB       112.2490   26.2670   63.4790 C.3   411  TYR411      0.0560
    154  CG       111.0900   27.1980   63.7620 C.ar  411  TYR411     -0.0198
    155  CD1      111.2500   28.5840   63.7060 C.ar  411  TYR411     -0.0009
    156  CD2      109.8320   26.6940   64.0940 C.ar  411  TYR411     -0.0009
    157  CE1      110.1880   29.4430   63.9780 C.ar  411  TYR411      0.0417
    158  CE2      108.7640   27.5450   64.3680 C.ar  411  TYR411      0.0417
    159  CZ       108.9490   28.9160   64.3100 C.ar  411  TYR411      0.1957
    160  OH       107.8990   29.7580   64.5950 O.3   411  TYR411     -0.2866
    161  N         99.5560   16.5020   72.7840 N.3   428  PHE428     -0.1241
    162  CA        98.8850   17.7010   72.2920 C.3   428  PHE428      0.1605
    163  C         99.6770   18.4150   71.1990 C.2   428  PHE428      0.2264
    164  O        100.8100   18.8430   71.4190 O.2   428  PHE428     -0.2867
    165  CB        98.6390   18.6690   73.4500 C.3   428  PHE428      0.0534
    166  CG        97.9050   19.9170   73.0530 C.ar  428  PHE428     -0.0203
    167  CD1       96.5540   19.8730   72.7330 C.ar  428  PHE428     -0.0042
    168  CD2       98.5670   21.1350   72.9920 C.ar  428  PHE428     -0.0042
    169  CE1       95.8710   21.0280   72.3580 C.ar  428  PHE428     -0.0003
    170  CE2       97.8960   22.2960   72.6180 C.ar  428  PHE428     -0.0003
    171  CZ        96.5450   22.2410   72.3010 C.ar  428  PHE428     -0.0000
    172  N        100.1890   25.4100   58.2100 N.3   480  TRP480     -0.1241
    173  CA       100.0420   26.6090   59.0280 C.3   480  TRP480      0.1605
    174  C         98.8830   27.4940   58.5860 C.2   480  TRP480      0.2264
    175  O         98.8790   28.6970   58.8410 O.2   480  TRP480     -0.2867
    176  CB       101.3390   27.4200   59.0100 C.3   480  TRP480      0.0550
    177  CG       102.5400   26.6340   59.4380 C.ar  480  TRP480      0.0003
    178  CD1      103.4400   26.0030   58.6280 C.ar  480  TRP480      0.0946
    179  CD2      102.9530   26.3670   60.7830 C.ar  480  TRP480      0.0152
    180  NE1      104.3890   25.3590   59.3860 N.ar  480  TRP480     -0.2442
    181  CE2      104.1140   25.5660   60.7120 C.ar  480  TRP480      0.0810
    182  CE3      102.4530   26.7260   62.0420 C.ar  480  TRP480      0.0012
    183  CZ2      104.7850   25.1150   61.8540 C.ar  480  TRP480      0.0191
    184  CZ3      103.1200   26.2780   63.1770 C.ar  480  TRP480      0.0001
    185  CH2      104.2750   25.4810   63.0730 C.ar  480  TRP480      0.0015
    186  N         94.1140   26.7320   51.4010 N.3   486  TYR486     -0.1241
    187  CA        95.3180   27.4770   51.7460 C.3   486  TYR486      0.1605
    188  C         96.5320   26.8520   51.0650 C.2   486  TYR486      0.2264
    189  O         97.3100   27.5410   50.4020 O.2   486  TYR486     -0.2867
    190  CB        95.5160   27.4780   53.2680 C.3   486  TYR486      0.0534
    191  CG        96.7780   28.1770   53.7250 C.ar  486  TYR486     -0.0201
    192  CD1       96.9720   29.5360   53.4840 C.ar  486  TYR486     -0.0009
    193  CD2       97.7900   27.4740   54.3790 C.ar  486  TYR486     -0.0009
    194  CE1       98.1450   30.1780   53.8790 C.ar  486  TYR486      0.0417
    195  CE2       98.9670   28.1070   54.7790 C.ar  486  TYR486      0.0417
    196  CZ        99.1370   29.4580   54.5250 C.ar  486  TYR486      0.1957
    197  OH       100.3020   30.0840   54.9050 O.3   486  TYR486     -0.2866
    198  N         97.7470   26.3750   64.0400 N.3   591  GLY591     -0.1210
    199  CA        98.9100   26.2410   64.8990 C.3   591  GLY591      0.1956
    200  C         99.3270   24.7830   64.8820 C.2   591  GLY591      0.2611
    201  O        100.4450   24.4430   64.4950 O.2   591  GLY591     -0.2717
    202  N         98.4090   23.9200   65.3060 N.am  592  PHE592     -0.1976
    203  CA        98.6280   22.4800   65.3240 C.3   592  PHE592      0.1639
    204  C         97.3400   21.8320   64.8300 C.2   592  PHE592      0.2290
    205  O         96.2790   22.0060   65.4300 O.2   592  PHE592     -0.2864
    206  CB        98.9310   21.9820   66.7400 C.3   592  PHE592      0.0560
    207  CG       100.1930   22.5420   67.3290 C.ar  592  PHE592     -0.0200
    208  CD1      101.3800   22.5350   66.6050 C.ar  592  PHE592     -0.0042
    209  CD2      100.2010   23.0490   68.6250 C.ar  592  PHE592     -0.0042
    210  CE1      102.5590   23.0250   67.1610 C.ar  592  PHE592     -0.0003
    211  CE2      101.3730   23.5400   69.1920 C.ar  592  PHE592     -0.0003
    212  CZ       102.5540   23.5280   68.4580 C.ar  592  PHE592     -0.0000
    213  N         95.4080   23.1310   67.9830 N.3   596  PHE596     -0.1241
    214  CA        95.5580   24.5610   68.2270 C.3   596  PHE596      0.1605
    215  C         95.3130   25.3520   66.9500 C.2   596  PHE596      0.2264
    216  O         95.9440   25.0940   65.9260 O.2   596  PHE596     -0.2867
    217  CB        96.9710   24.8450   68.7450 C.3   596  PHE596      0.0534
    218  CG        97.1030   26.1530   69.4710 C.ar  596  PHE596     -0.0203
    219  CD1       96.4580   26.3530   70.6880 C.ar  596  PHE596     -0.0042
    220  CD2       97.8760   27.1830   68.9430 C.ar  596  PHE596     -0.0042
    221  CE1       96.5800   27.5600   71.3710 C.ar  596  PHE596     -0.0003
    222  CE2       98.0060   28.3940   69.6170 C.ar  596  PHE596     -0.0003
    223  CZ        97.3560   28.5830   70.8340 C.ar  596  PHE596     -0.0000
    224  N         94.6850   29.3660   65.1080 N.3   598  LEU598     -0.1245
    225  CA        94.9660   30.7910   65.2500 C.3   598  LEU598      0.1561
    226  C         94.0620   31.6860   64.4160 C.2   598  LEU598      0.2260
    227  O         93.4820   31.2530   63.4190 O.2   598  LEU598     -0.2867
    228  CB        96.4210   31.0760   64.8690 C.3   598  LEU598      0.0270
    229  CG        97.5180   30.3620   65.6600 C.3   598  LEU598      0.0019
    230  CD1       98.8680   30.6380   65.0120 C.3   598  LEU598      0.0001
    231  CD2       97.4970   30.8320   67.1090 C.3   598  LEU598      0.0001
    232  N         94.4110   35.1130   62.4360 N.3   600  TYR600     -0.1241
    233  CA        95.2220   36.2120   61.9250 C.3   600  TYR600      0.1605
    234  C         94.3410   37.3910   61.5290 C.2   600  TYR600      0.2264
    235  O         93.6180   37.3430   60.5360 O.2   600  TYR600     -0.2867
    236  CB        96.0600   35.7560   60.7260 C.3   600  TYR600      0.0534
    237  CG        97.2030   34.8300   61.0880 C.ar  600  TYR600     -0.0201
    238  CD1       96.9650   33.5220   61.5080 C.ar  600  TYR600     -0.0009
    239  CD2       98.5260   35.2680   61.0250 C.ar  600  TYR600     -0.0009
    240  CE1       98.0160   32.6730   61.8560 C.ar  600  TYR600      0.0417
    241  CE2       99.5830   34.4290   61.3710 C.ar  600  TYR600      0.0417
    242  CZ        99.3220   33.1350   61.7860 C.ar  600  TYR600      0.1957
    243  OH       100.3640   32.3060   62.1330 O.3   600  TYR600     -0.2866
    244  N         94.9000   38.9570   57.8350 N.3   603  TYR603     -0.1241
    245  CA        94.5330   38.1070   56.7020 C.3   603  TYR603      0.1605
    246  C         93.3040   38.5850   55.9320 C.2   603  TYR603      0.2264
    247  O         93.3070   38.6180   54.7020 O.2   603  TYR603     -0.2867
    248  CB        94.3010   36.6720   57.1840 C.3   603  TYR603      0.0534
    249  CG        95.5660   35.8600   57.3640 C.ar  603  TYR603     -0.0201
    250  CD1       96.8010   36.4820   57.5600 C.ar  603  TYR603     -0.0009
    251  CD2       95.5240   34.4670   57.3590 C.ar  603  TYR603     -0.0009
    252  CE1       97.9630   35.7350   57.7460 C.ar  603  TYR603      0.0417
    253  CE2       96.6780   33.7110   57.5460 C.ar  603  TYR603      0.0417
    254  CZ        97.8930   34.3510   57.7390 C.ar  603  TYR603      0.1957
    255  OH        99.0330   33.6070   57.9330 O.3   603  TYR603     -0.2866
@<TRIPOS>BOND
     1   189   188    2
     2   188   187    1
     3   186   187    1
     4   187   190    1
     5   190   191    1
     6   192   191   ar
     7   192   194   ar
     8   191   193   ar
     9   194   196   ar
    10   193   195   ar
    11   196   195   ar
    12   196   197    1
    13   247   246    2
    14   131   130    2
    15   134   133   ar
    16   139   138    2
    17   108   107   ar
    18   108   106   ar
    19   135   133   ar
    20   133   132    1
    21   129   130    1
    22   129   128    1
    23   129   132    1
    24   246   245    1
    25   130   136   am
    26   107   105   ar
    27   106   104   ar
    28   138   137    1
    29   245   248    1
    30   245   244    1
    31   136   137    1
    32   248   249    1
    33    98    97    2
    34   105   102   ar
    35   137   140    1
    36   251   249   ar
    37   251   253   ar
    38   249   250   ar
    39   104   102   ar
    40   104   103   ar
    41   253   254   ar
    42   250   252   ar
    43   254   252   ar
    44   254   255    1
    45   102   100   ar
    46   172   173    1
    47   103   101   ar
    48   123   122    2
    49    97    96    1
    50   174   175    2
    51   174   173    1
    52   178   180   ar
    53   178   177   ar
    54   140   141    1
    55   122   121    1
    56   100   101   ar
    57   100    99    1
    58   176   173    1
    59   176   177    1
    60   144   145    1
    61    96    99    1
    62    96    95    1
    63   142   141   ar
    64   180   181   ar
    65   127   125   ar
    66   177   179   ar
    67   141   143   ar
    68   145   146    1
    69   145   148    1
    70   147   146    2
    71   146   149   am
    72   121   124    1
    73   121   120    1
    74   125   124    1
    75   125   126   ar
    76   235   234    2
    77   181   179   ar
    78   181   183   ar
    79   236   237    1
    80   236   233    1
    81   179   182   ar
    82   239   237   ar
    83   239   241   ar
    84   237   238   ar
    85   149   150    1
    86   241   242   ar
    87   238   240   ar
    88   234   233    1
    89   242   240   ar
    90   242   243    1
    91   183   185   ar
    92   151   152    2
    93   151   150    1
    94   233   232    1
    95   150   153    1
    96   182   184   ar
    97   117   115   ar
    98   117   119   ar
    99   115   114   ar
   100   185   184   ar
   101   110   109    1
   102   110   113    1
   103   110   111    1
   104   227   226    2
   105   119   118   ar
   106   153   154    1
   107   112   111    2
   108   155   154   ar
   109   155   157   ar
   110   154   156   ar
   111   114   113    1
   112   114   116   ar
   113   157   159   ar
   114   198   199    1
   115   156   158   ar
   116   159   158   ar
   117   159   160    1
   118   226   225    1
   119   201   200    2
   120    52    51   ar
   121    52    50   ar
   122   118   116   ar
   123   204   203    1
   124   204   205    2
   125    51    49   ar
   126   228   225    1
   127   228   229    1
   128   200   199    1
   129   200   202   am
   130   230   229    1
   131     7     6    1
   132   224   225    1
   133   202   203    1
   134   203   206    1
   135   229   231    1
   136    50    48   ar
   137   216   215    2
   138    49    46   ar
   139     6     8    1
   140     6     5    1
   141   208   210   ar
   142   208   207   ar
   143   206   207    1
   144   215   214    1
   145     2     5    1
   146     2     1    1
   147     2     3    1
   148    48    46   ar
   149    48    47   ar
   150   210   212   ar
   151    46    44   ar
   152   207   209   ar
   153     3     4    2
   154   213   214    1
   155   214   217    1
   156    47    45   ar
   157    94    93    1
   158   212   211   ar
   159   209   211   ar
   160    44    45   ar
   161    44    43    1
   162   217   218    1
   163    92    91    2
   164   220   218   ar
   165   220   222   ar
   166    93    90    1
   167    91    90    1
   168    39    40    1
   169    43    40    1
   170   218   219   ar
   171   222   223   ar
   172    90    89    1
   173    40    41    1
   174    66    64    1
   175    89    86   am
   176   219   221   ar
   177   223   221   ar
   178   163   164    2
   179   163   162    1
   180    88    85    1
   181    41    42    2
   182    86    87    2
   183    86    85    1
   184    64    65    1
   185    64    61    1
   186    67    65    1
   187    84    85    1
   188    60    61    1
   189   162   161    1
   190   162   165    1
   191   171   169   ar
   192   171   170   ar
   193    61    62    1
   194   169   167   ar
   195   170   168   ar
   196   167   166   ar
   197   168   166   ar
   198   166   165    1
   199    62    68   am
   200    62    63    2
   201    68    69    1
   202    15    14    1
   203    15    16    1
   204    83    82    1
   205    83    77    1
   206    14    13    1
   207    82    81    1
   208    58    57    1
   209    72    69    1
   210    72    73    1
   211    69    70    1
   212    26    25    1
   213    81    78    1
   214    53    54    1
   215    77    70   am
   216    77    78    1
   217    57    54    1
   218    57    59    1
   219    13    10    1
   220    37    38   ar
   221    37    35   ar
   222    70    71    2
   223    73    74    1
   224    75    74    2
   225    78    79    1
   226    54    55    1
   227    23    24    1
   228    23    22    1
   229    25    24    2
   230    25    27    1
   231    38    36   ar
   232    35    33   ar
   233     9    10    1
   234    21    22    1
   235    21    18    1
   236    10    11    1
   237    74    76   am
   238    79    80    2
   239    55    56    2
   240    18    17    1
   241    18    19    1
   242    36    34   ar
   243    33    34   ar
   244    33    32    1
   245    11    12    2
   246    32    29    1
   247    19    20    2
   248    28    29    1
   249    29    30    1
   250    30    31    2
