@<TRIPOS>MOLECULE
tmp/1h3aB01.pdb
 255 249 0 0 0
SMALL
GASTEIGER

@<TRIPOS>ATOM
      1  N         59.0190   18.1320   67.9260 N.3    27  LEU27      -0.1245
      2  CA        57.7930   18.8580   67.6120 C.3    27  LEU27       0.1561
      3  C         57.6470   20.0250   68.5850 C.2    27  LEU27       0.2260
      4  O         57.4910   19.8240   69.7900 O.2    27  LEU27      -0.2867
      5  CB        56.5860   17.9240   67.7320 C.3    27  LEU27       0.0270
      6  CG        55.2070   18.4870   67.3790 C.3    27  LEU27       0.0019
      7  CD1       55.1850   18.9250   65.9230 C.3    27  LEU27       0.0001
      8  CD2       54.1480   17.4260   67.6300 C.3    27  LEU27       0.0001
      9  N         52.9160   23.2280   77.7490 N.3    33  MET33      -0.1245
     10  CA        53.2360   21.8140   77.9030 C.3    33  MET33       0.1570
     11  C         54.0560   21.6100   79.1710 C.2    33  MET33       0.2261
     12  O         53.6490   20.8830   80.0770 O.2    33  MET33      -0.2867
     13  CB        54.0370   21.3150   76.6960 C.3    33  MET33       0.0387
     14  CG        53.3140   21.4220   75.3630 C.3    33  MET33       0.0595
     15  SD        51.8470   20.3790   75.2640 S.3    33  MET33      -0.1393
     16  CE        50.5620   21.5580   75.6760 C.3    33  MET33       0.0692
     17  N         41.4700   30.6850   79.3890 N.3   118  ARG118     -0.1245
     18  CA        40.6750   29.5760   78.8730 C.3   118  ARG118      0.1563
     19  C         40.2050   28.6760   80.0110 C.2   118  ARG118      0.2260
     20  O         40.6290   28.8350   81.1560 O.2   118  ARG118     -0.2867
     21  CB        41.5060   28.7570   77.8840 C.3   118  ARG118      0.0307
     22  CG        42.7540   28.1400   78.4980 C.3   118  ARG118      0.0489
     23  CD        43.5600   27.3610   77.4740 C.3   118  ARG118      0.2205
     24  NE        44.7320   26.7300   78.0770 N.pl3 118  ARG118     -0.0865
     25  CZ        45.6200   26.0050   77.4050 C.cat 118  ARG118      0.5346
     26  NH1       45.4740   25.8160   76.1010 N.pl3 118  ARG118      0.1354
     27  NH2       46.6540   25.4680   78.0370 N.pl3 118  ARG118      0.1354
     28  N         40.7690   25.3990   80.4240 N.3   120  PHE120     -0.1241
     29  CA        41.8790   24.5660   80.8720 C.3   120  PHE120      0.1605
     30  C         42.7450   25.2810   81.9040 C.2   120  PHE120      0.2264
     31  O         43.0070   24.7450   82.9810 O.2   120  PHE120     -0.2867
     32  CB        42.7440   24.1450   79.6810 C.3   120  PHE120      0.0534
     33  CG        42.1040   23.1070   78.8010 C.ar  120  PHE120     -0.0203
     34  CD1       41.7090   21.8790   79.3240 C.ar  120  PHE120     -0.0042
     35  CD2       41.9080   23.3510   77.4460 C.ar  120  PHE120     -0.0042
     36  CE1       41.1280   20.9070   78.5100 C.ar  120  PHE120     -0.0003
     37  CE2       41.3280   22.3860   76.6230 C.ar  120  PHE120     -0.0003
     38  CZ        40.9380   21.1620   77.1570 C.ar  120  PHE120     -0.0000
     39  N         40.7120   13.5570   69.6440 N.3   160  TRP160     -0.1241
     40  CA        41.5630   14.2250   70.6200 C.3   160  TRP160      0.1605
     41  C         40.7880   14.7900   71.8070 C.2   160  TRP160      0.2264
     42  O         41.2210   14.6680   72.9530 O.2   160  TRP160     -0.2867
     43  CB        42.3620   15.3360   69.9350 C.3   160  TRP160      0.0550
     44  CG        41.5230   16.4100   69.3060 C.ar  160  TRP160      0.0003
     45  CD1       40.9820   17.4990   69.9280 C.ar  160  TRP160      0.0946
     46  CD2       41.1300   16.4990   67.9300 C.ar  160  TRP160      0.0152
     47  NE1       40.2800   18.2620   69.0250 N.ar  160  TRP160     -0.2442
     48  CE2       40.3540   17.6710   67.7910 C.ar  160  TRP160      0.0810
     49  CE3       41.3590   15.7010   66.8000 C.ar  160  TRP160      0.0012
     50  CZ2       39.8060   18.0670   66.5670 C.ar  160  TRP160      0.0191
     51  CZ3       40.8130   16.0950   65.5820 C.ar  160  TRP160      0.0001
     52  CH2       40.0460   17.2680   65.4770 C.ar  160  TRP160      0.0015
     53  N         39.9730   13.3250   76.1730 N.3   164  THR164     -0.1218
     54  CA        40.0960   14.3510   77.2000 C.3   164  THR164      0.1862
     55  C         38.8140   14.4540   78.0190 C.2   164  THR164      0.2287
     56  O         38.8520   14.4780   79.2500 O.2   164  THR164     -0.2866
     57  CB        40.3940   15.7270   76.5740 C.3   164  THR164      0.1770
     58  OG1       41.6020   15.6530   75.8070 O.3   164  THR164     -0.2211
     59  CG2       40.5530   16.7820   77.6600 C.3   164  THR164      0.0375
     60  N         48.9150   12.1210   72.4180 N.3   252  ILE252     -0.1245
     61  CA        48.9960   13.5430   72.7240 C.3   252  ILE252      0.1561
     62  C         49.1240   13.7880   74.2260 C.2   252  ILE252      0.2260
     63  O         48.8630   12.9000   75.0370 O.2   252  ILE252     -0.2867
     64  CB        47.7680   14.2990   72.1800 C.3   252  ILE252      0.0252
     65  CG1       46.4820   13.6100   72.6370 C.3   252  ILE252      0.0019
     66  CG2       47.8290   14.3520   70.6620 C.3   252  ILE252      0.0019
     67  CD1       45.2150   14.2900   72.1560 C.3   252  ILE252      0.0001
     68  N         47.4480   16.2780   76.2960 N.3   254  PRO254     -0.2116
     69  CA        46.1960   16.5190   77.0210 C.3   254  PRO254      0.1372
     70  C         45.5460   15.3180   77.7180 C.2   254  PRO254      0.2244
     71  O         45.5940   15.2150   78.9440 O.2   254  PRO254     -0.2868
     72  CB        45.3030   17.1470   75.9540 C.3   254  PRO254      0.0268
     73  CG        46.2850   17.9140   75.1400 C.3   254  PRO254      0.0207
     74  CD        47.4140   16.9310   74.9760 C.3   254  PRO254      0.0892
     75  N         54.3550   17.9590   72.5670 N.3   297  ALA297     -0.1231
     76  CA        52.9150   17.7400   72.6430 C.3   297  ALA297      0.1694
     77  C         52.5900   16.4090   71.9760 C.2   297  ALA297      0.2592
     78  O         51.5470   15.8070   72.2330 O.2   297  ALA297     -0.2718
     79  CB        52.1770   18.8730   71.9430 C.3   297  ALA297      0.0304
     80  N         53.5020   15.9640   71.1170 N.am  298  SER298     -0.1952
     81  CA        53.3600   14.7070   70.3940 C.3   298  SER298      0.1924
     82  C         54.6420   14.4470   69.6090 C.2   298  SER298      0.2314
     83  O         55.5120   15.3130   69.5260 O.2   298  SER298     -0.2863
     84  CB        52.1700   14.7740   69.4330 C.3   298  SER298      0.2116
     85  OG        52.0000   13.5500   68.7410 O.3   298  SER298     -0.2180
     86  N         55.3320   10.1450   60.5480 N.3   303  TRP303     -0.1241
     87  CA        55.1240   11.2650   59.6390 C.3   303  TRP303      0.1605
     88  C         56.4270   11.7280   58.9910 C.2   303  TRP303      0.2264
     89  O         56.4940   11.8900   57.7720 O.2   303  TRP303     -0.2867
     90  CB        54.4620   12.4290   60.3850 C.3   303  TRP303      0.0550
     91  CG        54.1950   13.6250   59.5210 C.ar  303  TRP303      0.0003
     92  CD1       54.8510   14.8220   59.5510 C.ar  303  TRP303      0.0946
     93  CD2       53.2190   13.7300   58.4780 C.ar  303  TRP303      0.0152
     94  NE1       54.3460   15.6650   58.5900 N.ar  303  TRP303     -0.2442
     95  CE2       53.3430   15.0190   57.9160 C.ar  303  TRP303      0.0810
     96  CE3       52.2510   12.8580   57.9610 C.ar  303  TRP303      0.0012
     97  CZ2       52.5370   15.4600   56.8610 C.ar  303  TRP303      0.0191
     98  CZ3       51.4490   13.2950   56.9120 C.ar  303  TRP303      0.0001
     99  CH2       51.5990   14.5860   56.3740 C.ar  303  TRP303      0.0015
    100  N         50.4180    8.4290   63.7340 N.3   356  PHE356     -0.1227
    101  CA        51.3240    9.5630   63.6080 C.3   356  PHE356      0.1736
    102  C         52.6270    9.2570   64.3360 C.2   356  PHE356      0.2595
    103  O         53.7170    9.5020   63.8170 O.2   356  PHE356     -0.2718
    104  CB        50.6810   10.8120   64.2130 C.3   356  PHE356      0.0547
    105  CG        51.4810   12.0660   64.0130 C.ar  356  PHE356     -0.0202
    106  CD1       51.5720   12.6550   62.7570 C.ar  356  PHE356     -0.0042
    107  CD2       52.1340   12.6670   65.0830 C.ar  356  PHE356     -0.0042
    108  CE1       52.3010   13.8270   62.5700 C.ar  356  PHE356     -0.0003
    109  CE2       52.8660   13.8380   64.9060 C.ar  356  PHE356     -0.0003
    110  CZ        52.9470   14.4190   63.6460 C.ar  356  PHE356     -0.0000
    111  N         52.5010    8.7140   65.5410 N.am  357  GLN357     -0.1979
    112  CA        53.6530    8.3730   66.3610 C.3   357  GLN357      0.1601
    113  C         54.0140    6.8930   66.2900 C.2   357  GLN357      0.2287
    114  O         53.5090    6.1600   65.4400 O.2   357  GLN357     -0.2864
    115  CB        53.4020    8.7830   67.8170 C.3   357  GLN357      0.0394
    116  CG        52.0300    8.4210   68.3790 C.3   357  GLN357      0.0908
    117  CD        50.9130    9.3110   67.8510 C.2   357  GLN357      0.2608
    118  OE1       50.4650    9.1640   66.7140 O.2   357  GLN357     -0.2717
    119  NE2       50.4650   10.2470   68.6790 N.am  357  GLN357     -0.0878
    120  N         45.4100    7.9150   61.6080 N.3   365  ASP365     -0.1239
    121  CA        44.8760    9.0300   60.8330 C.3   365  ASP365      0.1674
    122  C         44.9690    8.7760   59.3330 C.2   365  ASP365      0.2266
    123  O         45.7780    7.9700   58.8720 O.2   365  ASP365     -0.2867
    124  CB        45.6180   10.3240   61.1780 C.3   365  ASP365      0.1410
    125  CG        47.1020   10.2340   60.9020 C.2   365  ASP365      0.3668
    126  OD1       47.7810    9.4210   61.5620 O.co2 365  ASP365     -0.2456
    127  OD2       47.5870   10.9750   60.0220 O.co2 365  ASP365     -0.2456
    128  N         45.7570   11.1130   57.0510 N.3   367  ASP367     -0.1225
    129  CA        46.8940   11.8470   56.5110 C.3   367  ASP367      0.1805
    130  C         48.1390   10.9680   56.4540 C.2   367  ASP367      0.2597
    131  O         48.7060   10.7550   55.3820 O.2   367  ASP367     -0.2718
    132  CB        47.1750   13.0850   57.3640 C.3   367  ASP367      0.1424
    133  CG        47.6990   14.2480   56.5450 C.2   367  ASP367      0.3668
    134  OD1       48.7090   14.0720   55.8320 O.co2 367  ASP367     -0.2456
    135  OD2       47.0960   15.3390   56.6180 O.co2 367  ASP367     -0.2456
    136  N         48.5610   10.4620   57.6090 N.am  368  ASP368     -0.1974
    137  CA        49.7360    9.6000   57.6820 C.3   368  ASP368      0.1709
    138  C         49.5850    8.3950   56.7610 C.2   368  ASP368      0.2293
    139  O         50.4670    8.1080   55.9520 O.2   368  ASP368     -0.2864
    140  CB        49.9620    9.1190   59.1200 C.3   368  ASP368      0.1436
    141  CG        50.6240   10.1690   59.9930 C.2   368  ASP368      0.3671
    142  OD1       51.7830   10.5340   59.7100 O.co2 368  ASP368     -0.2456
    143  OD2       49.9880   10.6310   60.9630 O.co2 368  ASP368     -0.2456
    144  N         40.3510   13.3430   59.5240 N.3   410  ALA410     -0.1231
    145  CA        41.6790   13.0440   60.0410 C.3   410  ALA410      0.1694
    146  C         41.6980   11.7210   60.7960 C.2   410  ALA410      0.2592
    147  O         42.5970   10.9040   60.6060 O.2   410  ALA410     -0.2718
    148  CB        42.1470   14.1680   60.9520 C.3   410  ALA410      0.0304
    149  N         40.7000   11.5120   61.6490 N.am  411  TYR411     -0.1976
    150  CA        40.6200   10.2910   62.4390 C.3   411  TYR411      0.1639
    151  C         39.2990    9.5470   62.2620 C.2   411  TYR411      0.2290
    152  O         39.2830    8.3250   62.1200 O.2   411  TYR411     -0.2864
    153  CB        40.8330   10.6200   63.9180 C.3   411  TYR411      0.0560
    154  CG        42.2100   11.1670   64.2280 C.ar  411  TYR411     -0.0198
    155  CD1       43.3400   10.3550   64.1340 C.ar  411  TYR411     -0.0009
    156  CD2       42.3850   12.4970   64.6080 C.ar  411  TYR411     -0.0009
    157  CE1       44.6110   10.8540   64.4120 C.ar  411  TYR411      0.0417
    158  CE2       43.6520   13.0060   64.8880 C.ar  411  TYR411      0.0417
    159  CZ        44.7600   12.1790   64.7880 C.ar  411  TYR411      0.1957
    160  OH        46.0140   12.6750   65.0620 O.3   411  TYR411     -0.2866
    161  N         38.5740   26.1610   73.3550 N.3   428  PHE428     -0.1241
    162  CA        39.9460   26.2090   72.8670 C.3   428  PHE428      0.1605
    163  C         40.1640   25.2390   71.7100 C.2   428  PHE428      0.2264
    164  O         39.9950   24.0290   71.8620 O.2   428  PHE428     -0.2867
    165  CB        40.9180   25.8770   74.0020 C.3   428  PHE428      0.0534
    166  CG        42.3630   26.0700   73.6390 C.ar  428  PHE428     -0.0203
    167  CD1       42.8600   27.3400   73.3640 C.ar  428  PHE428     -0.0042
    168  CD2       43.2270   24.9840   73.5680 C.ar  428  PHE428     -0.0042
    169  CE1       44.1980   27.5260   73.0240 C.ar  428  PHE428     -0.0003
    170  CE2       44.5660   25.1580   73.2280 C.ar  428  PHE428     -0.0003
    171  CZ        45.0520   26.4320   72.9560 C.ar  428  PHE428     -0.0000
    172  N         46.0470   21.6600   58.8300 N.3   480  TRP480     -0.1241
    173  CA        47.1920   21.2350   59.6270 C.3   480  TRP480      0.1605
    174  C         48.5030   21.7910   59.0830 C.2   480  TRP480      0.2264
    175  O         49.4830   21.0610   58.9290 O.2   480  TRP480     -0.2867
    176  CB        47.2650   19.7070   59.6790 C.3   480  TRP480      0.0550
    177  CG        45.9590   19.0570   60.0120 C.ar  480  TRP480      0.0003
    178  CD1       44.9850   18.6800   59.1340 C.ar  480  TRP480      0.0946
    179  CD2       45.4700   18.7330   61.3190 C.ar  480  TRP480      0.0152
    180  NE1       43.9180   18.1400   59.8120 N.ar  480  TRP480     -0.2442
    181  CE2       44.1890   18.1610   61.1540 C.ar  480  TRP480      0.0810
    182  CE3       45.9880   18.8710   62.6130 C.ar  480  TRP480      0.0012
    183  CZ2       43.4180   17.7250   62.2370 C.ar  480  TRP480      0.0191
    184  CZ3       45.2210   18.4370   63.6900 C.ar  480  TRP480      0.0001
    185  CH2       43.9500   17.8720   63.4930 C.ar  480  TRP480      0.0015
    186  N         50.1460   26.3790   52.1010 N.3   486  TYR486     -0.1241
    187  CA        50.2260   24.9590   52.4180 C.3   486  TYR486      0.1605
    188  C         49.0810   24.2080   51.7500 C.2   486  TYR486      0.2264
    189  O         49.2910   23.1800   51.1050 O.2   486  TYR486     -0.2867
    190  CB        50.1630   24.7580   53.9340 C.3   486  TYR486      0.0534
    191  CG        50.1470   23.3080   54.3650 C.ar  486  TYR486     -0.0201
    192  CD1       51.2050   22.4550   54.0510 C.ar  486  TYR486     -0.0009
    193  CD2       49.0740   22.7880   55.0870 C.ar  486  TYR486     -0.0009
    194  CE1       51.1940   21.1180   54.4470 C.ar  486  TYR486      0.0417
    195  CE2       49.0520   21.4530   55.4880 C.ar  486  TYR486      0.0417
    196  CZ        50.1160   20.6250   55.1640 C.ar  486  TYR486      0.1957
    197  OH        50.1030   19.3060   55.5560 O.3   486  TYR486     -0.2866
    198  N         47.9180   23.1340   64.5630 N.3   591  GLY591     -0.1210
    199  CA        47.1510   22.1790   65.3400 C.3   591  GLY591      0.1956
    200  C         45.7010   22.6220   65.3640 C.2   591  GLY591      0.2611
    201  O         44.7940   21.8550   65.0380 O.2   591  GLY591     -0.2717
    202  N         45.4910   23.8750   65.7540 N.am  592  PHE592     -0.1976
    203  CA        44.1580   24.4620   65.8140 C.3   592  PHE592      0.1639
    204  C         44.2240   25.9030   65.3240 C.2   592  PHE592      0.2290
    205  O         44.9230   26.7330   65.9040 O.2   592  PHE592     -0.2864
    206  CB        43.6160   24.4370   67.2460 C.3   592  PHE592      0.0560
    207  CG        43.3990   23.0560   67.7900 C.ar  592  PHE592     -0.0200
    208  CD1       42.6210   22.1340   67.0960 C.ar  592  PHE592     -0.0042
    209  CD2       43.9590   22.6800   69.0040 C.ar  592  PHE592     -0.0042
    210  CE1       42.4060   20.8550   67.6050 C.ar  592  PHE592     -0.0003
    211  CE2       43.7500   21.4070   69.5210 C.ar  592  PHE592     -0.0003
    212  CZ        42.9710   20.4920   68.8210 C.ar  592  PHE592     -0.0000
    213  N         46.3070   26.6620   68.6730 N.3   596  PHE596     -0.1241
    214  CA        47.4960   25.8560   68.9130 C.3   596  PHE596      0.1605
    215  C         48.3130   25.7190   67.6330 C.2   596  PHE596      0.2264
    216  O         47.7940   25.2980   66.5990 O.2   596  PHE596     -0.2867
    217  CB        47.0940   24.4710   69.4220 C.3   596  PHE596      0.0534
    218  CG        48.2190   23.7090   70.0580 C.ar  596  PHE596     -0.0203
    219  CD1       48.8170   24.1740   71.2250 C.ar  596  PHE596     -0.0042
    220  CD2       48.6810   22.5250   69.4930 C.ar  596  PHE596     -0.0042
    221  CE1       49.8580   23.4700   71.8240 C.ar  596  PHE596     -0.0003
    222  CE2       49.7220   21.8130   70.0830 C.ar  596  PHE596     -0.0003
    223  CZ        50.3120   22.2870   71.2510 C.ar  596  PHE596     -0.0000
    224  N         52.0460   24.3070   65.8220 N.3   598  LEU598     -0.1245
    225  CA        53.1750   23.3950   65.9420 C.3   598  LEU598      0.1561
    226  C         54.3220   23.7700   65.0150 C.2   598  LEU598      0.2260
    227  O         54.1430   24.5170   64.0520 O.2   598  LEU598     -0.2867
    228  CB        52.7270   21.9640   65.6340 C.3   598  LEU598      0.0270
    229  CG        51.6820   21.3520   66.5690 C.3   598  LEU598      0.0019
    230  CD1       51.2270   20.0110   66.0190 C.3   598  LEU598      0.0001
    231  CD2       52.2720   21.1930   67.9620 C.3   598  LEU598      0.0001
    232  N         57.1690   21.7110   62.9720 N.3   600  TYR600     -0.1241
    233  CA        57.8130   20.4790   62.5320 C.3   600  TYR600      0.1605
    234  C         59.2410   20.7570   62.0760 C.2   600  TYR600      0.2264
    235  O         59.4640   21.4450   61.0800 O.2   600  TYR600     -0.2867
    236  CB        57.0150   19.8440   61.3920 C.3   600  TYR600      0.0534
    237  CG        55.6060   19.4410   61.7710 C.ar  600  TYR600     -0.0201
    238  CD1       54.6620   20.3970   62.1510 C.ar  600  TYR600     -0.0009
    239  CD2       55.2160   18.1030   61.7540 C.ar  600  TYR600     -0.0009
    240  CE1       53.3660   20.0300   62.5040 C.ar  600  TYR600      0.0417
    241  CE2       53.9210   17.7250   62.1050 C.ar  600  TYR600      0.0417
    242  CZ        53.0030   18.6940   62.4780 C.ar  600  TYR600      0.1957
    243  OH        51.7230   18.3270   62.8270 O.3   600  TYR600     -0.2866
    244  N         60.3420   19.6310   58.4330 N.3   603  TYR603     -0.1241
    245  CA        59.7570   20.4310   57.3590 C.3   603  TYR603      0.1605
    246  C         60.7700   21.3240   56.6460 C.2   603  TYR603      0.2264
    247  O         60.7440   21.4510   55.4220 O.2   603  TYR603     -0.2867
    248  CB        58.6200   21.2930   57.9150 C.3   603  TYR603      0.0534
    249  CG        57.2860   20.5830   58.0110 C.ar  603  TYR603     -0.0201
    250  CD1       57.2140   19.2120   58.2590 C.ar  603  TYR603     -0.0009
    251  CD2       56.0910   21.2900   57.8790 C.ar  603  TYR603     -0.0009
    252  CE1       55.9860   18.5630   58.3730 C.ar  603  TYR603      0.0417
    253  CE2       54.8590   20.6520   57.9930 C.ar  603  TYR603      0.0417
    254  CZ        54.8140   19.2910   58.2400 C.ar  603  TYR603      0.1957
    255  OH        53.5970   18.6600   58.3580 O.3   603  TYR603     -0.2866
@<TRIPOS>BOND
     1   189   188    2
     2   188   187    1
     3   186   187    1
     4   187   190    1
     5   190   191    1
     6   192   191   ar
     7   192   194   ar
     8   191   193   ar
     9   194   196   ar
    10   193   195   ar
    11   196   195   ar
    12   196   197    1
    13   131   130    2
    14   247   246    2
    15   134   133   ar
    16   139   138    2
    17    99    97   ar
    18    99    98   ar
    19   130   129    1
    20   130   136   am
    21   129   128    1
    22   129   132    1
    23   133   135   ar
    24   133   132    1
    25   246   245    1
    26   138   137    1
    27    97    95   ar
    28    98    96   ar
    29   245   248    1
    30   245   244    1
    31   136   137    1
    32   137   140    1
    33    89    88    2
    34   251   253   ar
    35   251   249   ar
    36   248   249    1
    37    95    93   ar
    38    95    94   ar
    39    96    93   ar
    40   253   254   ar
    41   249   250   ar
    42   254   255    1
    43   254   252   ar
    44   250   252   ar
    45    93    91   ar
    46    94    92   ar
    47   172   173    1
    48   123   122    2
    49   175   174    2
    50    88    87    1
    51   174   173    1
    52   140   141    1
    53   178   180   ar
    54   178   177   ar
    55   122   121    1
    56    91    92   ar
    57    91    90    1
    58   144   145    1
    59   173   176    1
    60    87    90    1
    61    87    86    1
    62   176   177    1
    63   142   141   ar
    64   180   181   ar
    65   141   143   ar
    66   177   179   ar
    67   127   125   ar
    68   145   146    1
    69   145   148    1
    70   147   146    2
    71   146   149   am
    72   121   124    1
    73   121   120    1
    74   125   124    1
    75   125   126   ar
    76   235   234    2
    77   181   179   ar
    78   181   183   ar
    79   179   182   ar
    80   236   237    1
    81   236   233    1
    82   149   150    1
    83   239   237   ar
    84   239   241   ar
    85   237   238   ar
    86   234   233    1
    87   241   242   ar
    88   152   151    2
    89   238   240   ar
    90   183   185   ar
    91   151   150    1
    92   150   153    1
    93   242   240   ar
    94   242   243    1
    95   233   232    1
    96   108   106   ar
    97   108   110   ar
    98   182   184   ar
    99   106   105   ar
   100   185   184   ar
   101   101   100    1
   102   101   104    1
   103   101   102    1
   104   110   109   ar
   105   103   102    2
   106   153   154    1
   107   105   104    1
   108   105   107   ar
   109   227   226    2
   110   155   154   ar
   111   155   157   ar
   112   154   156   ar
   113   102   111   am
   114   157   159   ar
   115   198   199    1
   116   156   158   ar
   117   159   158   ar
   118   159   160    1
   119   109   107   ar
   120   226   225    1
   121   201   200    2
   122   204   203    1
   123   204   205    2
   124   199   200    1
   125   200   202   am
   126   114   113    2
   127    52    51   ar
   128    52    50   ar
   129   111   112    1
   130    51    49   ar
   131   228   225    1
   132   228   229    1
   133   202   203    1
   134   203   206    1
   135   224   225    1
   136     7     6    1
   137   230   229    1
   138   113   112    1
   139   112   115    1
   140    50    48   ar
   141   229   231    1
   142   216   215    2
   143   118   117    2
   144    49    46   ar
   145   208   210   ar
   146   208   207   ar
   147   206   207    1
   148     6     8    1
   149     6     5    1
   150   210   212   ar
   151     2     5    1
   152     2     1    1
   153     2     3    1
   154   215   214    1
   155   207   209   ar
   156    48    46   ar
   157    48    47   ar
   158   115   116    1
   159   117   116    1
   160   117   119   am
   161    46    44   ar
   162     3     4    2
   163   213   214    1
   164    85    84    1
   165   212   211   ar
   166   214   217    1
   167   209   211   ar
   168    47    45   ar
   169    44    45   ar
   170    44    43    1
   171   217   218    1
   172    84    81    1
   173   220   218   ar
   174   220   222   ar
   175    83    82    2
   176    82    81    1
   177    39    40    1
   178    43    40    1
   179   218   219   ar
   180   222   223   ar
   181    81    80    1
   182    40    41    1
   183    66    64    1
   184    80    77   am
   185   219   221   ar
   186   223   221   ar
   187   163   164    2
   188   163   162    1
   189    41    42    2
   190    79    76    1
   191    77    78    2
   192    77    76    1
   193    67    65    1
   194    64    65    1
   195    64    61    1
   196    60    61    1
   197    75    76    1
   198    61    62    1
   199   162   161    1
   200   162   165    1
   201   171   169   ar
   202   171   170   ar
   203   169   167   ar
   204   170   168   ar
   205   167   166   ar
   206   168   166   ar
   207   166   165    1
   208    62    63    2
   209    74    73    1
   210    74    68    1
   211    73    72    1
   212    15    14    1
   213    15    16    1
   214    14    13    1
   215    58    57    1
   216    72    69    1
   217    26    25    1
   218    53    54    1
   219    68    69    1
   220    57    54    1
   221    57    59    1
   222    37    38   ar
   223    37    35   ar
   224    13    10    1
   225    69    70    1
   226    38    36   ar
   227    54    55    1
   228    25    27    1
   229    25    24    2
   230    35    33   ar
   231    23    24    1
   232    23    22    1
   233    70    71    2
   234     9    10    1
   235    21    22    1
   236    21    18    1
   237    10    11    1
   238    55    56    2
   239    36    34   ar
   240    33    34   ar
   241    33    32    1
   242    18    17    1
   243    18    19    1
   244    11    12    2
   245    32    29    1
   246    19    20    2
   247    28    29    1
   248    29    30    1
   249    30    31    2
