@<TRIPOS>MOLECULE
tmp/1h3dA00.pdb
 100 95 0 0 0
SMALL
GASTEIGER

@<TRIPOS>ATOM
      1  N         49.1190   38.4670   47.0010 N.3    12  ARG12      -0.1245
      2  CA        49.5260   39.2270   48.1510 C.3    12  ARG12       0.1563
      3  C         49.5450   38.4970   49.4950 C.2    12  ARG12       0.2260
      4  O         50.3960   38.7860   50.3090 O.2    12  ARG12      -0.2867
      5  CB        48.8290   40.5740   48.1770 C.3    12  ARG12       0.0307
      6  CG        49.3660   41.5370   47.0800 C.3    12  ARG12       0.0489
      7  CD        48.5490   42.8130   47.0200 C.3    12  ARG12       0.2205
      8  NE        49.0150   43.8650   46.1150 N.pl3  12  ARG12      -0.0865
      9  CZ        48.6770   43.9720   44.8330 C.cat  12  ARG12       0.5346
     10  NH1       47.9040   43.0650   44.2510 N.pl3  12  ARG12       0.1354
     11  NH2       49.1270   44.9890   44.1240 N.pl3  12  ARG12       0.1354
     12  N         48.3940   41.3460   55.5700 N.3    98  GLY98      -0.1210
     13  CA        47.4870   41.6080   54.5140 C.3    98  GLY98       0.1956
     14  C         46.9180   42.9860   54.5460 C.2    98  GLY98       0.2612
     15  O         46.0890   43.3100   53.7330 O.2    98  GLY98      -0.2717
     16  N         47.3690   43.8500   55.4110 N.am   99  GLY99      -0.1942
     17  CA        46.7410   45.1510   55.4550 C.3    99  GLY99       0.2014
     18  C         46.5530   45.8950   54.1570 C.2    99  GLY99       0.2639
     19  O         47.3960   45.8020   53.2800 O.2    99  GLY99      -0.2714
     20  N         45.4520   46.6320   54.0360 N.am  100  CYS100     -0.1967
     21  CA        45.1930   47.4700   52.8860 C.3   100  CYS100      0.1712
     22  C         43.9820   48.3350   53.1510 C.2   100  CYS100      0.2296
     23  O         43.2340   48.0810   54.0750 O.2   100  CYS100     -0.2864
     24  CB        45.0230   46.6640   51.6090 C.3   100  CYS100      0.0983
     25  SG        43.7040   45.4610   51.5650 S.3   100  CYS100     -0.0798
     26  N         43.1450   48.8060   36.7350 N.3   150  SER150     -0.1217
     27  CA        43.4250   50.1390   36.2390 C.3   150  SER150      0.1889
     28  C         42.3420   51.1200   36.5950 C.2   150  SER150      0.2288
     29  O         42.0380   52.0020   35.7960 O.2   150  SER150     -0.2866
     30  CB        43.6010   50.1310   34.7230 C.3   150  SER150      0.2089
     31  OG        44.4190   49.0520   34.2960 O.3   150  SER150     -0.2183
     32  N         42.1820   53.6980   38.2330 N.3   152  GLU152     -0.1245
     33  CA        42.5970   55.0890   38.2180 C.3   152  GLU152      0.1567
     34  C         42.4250   55.7980   36.8550 C.2   152  GLU152      0.2260
     35  O         42.4920   57.0340   36.8190 O.2   152  GLU152     -0.2867
     36  CB        44.0430   55.2280   38.6840 C.3   152  GLU152      0.0388
     37  CG        44.3390   54.8240   40.1090 C.3   152  GLU152      0.1160
     38  CD        44.3100   53.3250   40.2790 C.2   152  GLU152      0.3649
     39  OE1       43.3340   52.7420   39.7930 O.co2 152  GLU152     -0.2457
     40  OE2       45.2400   52.7190   40.8670 O.co2 152  GLU152     -0.2457
     41  N         39.3970   52.7970   45.4210 N.3   165  ASP165     -0.1225
     42  CA        40.3720   51.7630   45.1220 C.3   165  ASP165      0.1805
     43  C         41.3660   51.4420   46.2240 C.2   165  ASP165      0.2598
     44  O         41.4720   52.1530   47.2130 O.2   165  ASP165     -0.2718
     45  CB        41.1400   52.1350   43.8560 C.3   165  ASP165      0.1424
     46  CG        41.8400   50.9090   43.1850 C.2   165  ASP165      0.3668
     47  OD1       41.5090   49.7070   43.5310 O.co2 165  ASP165     -0.2456
     48  OD2       42.7630   51.0800   42.3090 O.co2 165  ASP165     -0.2456
     49  N         42.1000   50.3520   46.0600 N.am  166  LEU166     -0.1966
     50  CA        43.0990   50.0430   47.0440 C.3   166  LEU166      0.1728
     51  C         44.1860   51.0160   46.8220 C.2   166  LEU166      0.2616
     52  O         44.5970   51.2450   45.6790 O.2   166  LEU166     -0.2715
     53  CB        43.6150   48.6280   46.8900 C.3   166  LEU166      0.0311
     54  CG        42.4960   47.6310   47.2190 C.3   166  LEU166      0.0022
     55  CD1       42.9230   46.2080   47.0340 C.3   166  LEU166      0.0001
     56  CD2       42.0230   47.8440   48.6600 C.3   166  LEU166      0.0001
     57  N         44.6320   51.6260   47.9050 N.am  167  VAL167     -0.1963
     58  CA        45.7310   52.5790   47.8620 C.3   167  VAL167      0.1727
     59  C         46.7880   52.1640   48.8580 C.2   167  VAL167      0.2617
     60  O         46.4640   51.5600   49.8880 O.2   167  VAL167     -0.2715
     61  CB        45.2570   53.9750   48.3020 C.3   167  VAL167      0.0290
     62  CG1       46.4040   54.9310   48.3430 C.3   167  VAL167      0.0023
     63  CG2       44.2050   54.4920   47.3790 C.3   167  VAL167      0.0023
     64  N         48.0480   52.4550   48.5730 N.am  168  SER168     -0.1936
     65  CA        49.0840   52.2660   49.6080 C.3   168  SER168      0.2055
     66  C         50.1200   53.3600   49.5810 C.2   168  SER168      0.2644
     67  O         49.9970   54.3080   50.3270 O.2   168  SER168     -0.2714
     68  CB        49.7220   50.8850   49.6140 C.3   168  SER168      0.2130
     69  OG        50.2320   50.5810   48.3450 O.3   168  SER168     -0.2179
     70  N         51.1160   53.2830   48.7180 N.am  169  THR169     -0.1936
     71  CA        52.0950   54.3780   48.7110 C.3   169  THR169      0.2028
     72  C         51.4120   55.6320   48.2160 C.2   169  THR169      0.2643
     73  O         51.7170   56.7270   48.6570 O.2   169  THR169     -0.2714
     74  CB        53.3170   54.0610   47.8470 C.3   169  THR169      0.1808
     75  OG1       52.9070   53.9370   46.4810 O.3   169  THR169     -0.2208
     76  CG2       53.8490   52.7060   48.1940 C.3   169  THR169      0.0379
     77  N         50.4680   55.4530   47.3040 N.am  170  GLY170     -0.1939
     78  CA        49.7230   56.5720   46.7780 C.3   170  GLY170      0.2014
     79  C         50.3050   56.9570   45.4420 C.2   170  GLY170      0.2639
     80  O         49.9150   57.9770   44.8700 O.2   170  GLY170     -0.2714
     81  N         51.2390   56.1360   44.9530 N.am  171  ALA171     -0.1963
     82  CA        51.9170   56.3620   43.6800 C.3   171  ALA171      0.1728
     83  C         50.9810   56.4900   42.4690 C.2   171  ALA171      0.2617
     84  O         50.9570   57.5410   41.8260 O.2   171  ALA171     -0.2715
     85  CB        52.8850   55.2650   43.4500 C.3   171  ALA171      0.0334
     86  N         50.2180   55.4270   42.1740 N.am  172  THR172     -0.1937
     87  CA        49.3110   55.4050   41.0200 C.3   172  THR172      0.2028
     88  C         48.4430   56.6410   40.9580 C.2   172  THR172      0.2642
     89  O         48.3260   57.2870   39.9260 O.2   172  THR172     -0.2714
     90  CB        48.3880   54.1550   41.0350 C.3   172  THR172      0.1808
     91  OG1       49.1410   52.9830   41.3130 O.3   172  THR172     -0.2208
     92  CG2       47.9110   53.8700   39.6830 C.3   172  THR172      0.0379
     93  N         47.8180   56.9670   42.0720 N.am  173  LEU173     -0.1977
     94  CA        46.8920   58.0880   42.0640 C.3   173  LEU173      0.1596
     95  C         47.5780   59.3650   41.5780 C.2   173  LEU173      0.2287
     96  O         47.0550   60.0810   40.7190 O.2   173  LEU173     -0.2864
     97  CB        46.2580   58.3010   43.4450 C.3   173  LEU173      0.0297
     98  CG        45.4160   57.1830   44.0550 C.3   173  LEU173      0.0022
     99  CD1       45.3860   57.4660   45.5430 C.3   173  LEU173      0.0001
    100  CD2       44.0040   57.0660   43.4390 C.3   173  LEU173      0.0001
@<TRIPOS>BOND
     1    31    30    1
     2    30    27    1
     3    29    28    2
     4    27    28    1
     5    27    26    1
     6    35    34    2
     7    34    33    1
     8    33    32    1
     9    33    36    1
    10    36    37    1
    11    92    90    1
    12    39    38   ar
    13    89    88    2
    14    37    38    1
    15    38    40   ar
    16    96    95    2
    17    88    87    1
    18    88    93   am
    19    87    90    1
    20    87    86    1
    21    90    91    1
    22    95    94    1
    23    84    83    2
    24    94    93    1
    25    94    97    1
    26    86    83   am
    27    48    46   ar
    28    83    82    1
    29    46    47   ar
    30    46    45    1
    31   100    98    1
    32    97    98    1
    33    85    82    1
    34    82    81    1
    35    45    42    1
    36    98    99    1
    37    11     9    1
    38    10     9    1
    39     9     8    2
    40    80    79    2
    41    81    79   am
    42    42    41    1
    43    42    43    1
    44    79    78    1
    45    52    51    2
    46    49    43   am
    47    49    50    1
    48     8     7    1
    49    43    44    2
    50    75    74    1
    51    78    77    1
    52    51    50    1
    53    51    57   am
    54    53    50    1
    55    53    54    1
    56     1     2    1
    57     7     6    1
    58    55    54    1
    59     6     5    1
    60    54    56    1
    61    77    72   am
    62    63    61    1
    63    74    76    1
    64    74    71    1
    65    58    57    1
    66    58    61    1
    67    58    59    1
    68     2     5    1
    69     2     3    1
    70    72    73    2
    71    72    71    1
    72    61    62    1
    73    69    68    1
    74    64    59   am
    75    64    65    1
    76    71    70    1
    77    70    66   am
    78    59    60    2
    79     3     4    2
    80    66    65    1
    81    66    67    2
    82    65    68    1
    83    25    24    1
    84    24    21    1
    85    21    22    1
    86    21    20    1
    87    22    23    2
    88    19    18    2
    89    15    14    2
    90    20    18   am
    91    18    17    1
    92    13    14    1
    93    13    12    1
    94    14    16   am
    95    16    17    1
