@<TRIPOS>MOLECULE
tmp/1h3eA00.pdb
 187 180 0 0 0
SMALL
GASTEIGER

@<TRIPOS>ATOM
      1  N        134.5880   53.7990   60.9400 N.3    37  LEU37      -0.1231
      2  CA       133.8580   53.2750   59.7960 C.3    37  LEU37       0.1693
      3  C        134.6650   53.5010   58.5350 C.2    37  LEU37       0.2593
      4  O        134.8140   54.6370   58.1020 O.2    37  LEU37      -0.2718
      5  CB       132.5130   53.9680   59.6290 C.3    37  LEU37       0.0284
      6  CG       131.8840   53.7360   58.2480 C.3    37  LEU37       0.0019
      7  CD1      131.5630   52.2650   58.0380 C.3    37  LEU37       0.0001
      8  CD2      130.6340   54.5740   58.1420 C.3    37  LEU37       0.0001
      9  N        135.1790   52.4270   57.9450 N.am   38  GLY38      -0.1942
     10  CA       135.9520   52.5600   56.7260 C.3    38  GLY38       0.2014
     11  C        135.1560   52.1660   55.4870 C.2    38  GLY38       0.2639
     12  O        134.1030   51.5310   55.5860 O.2    38  GLY38      -0.2714
     13  N        135.6550   52.5450   54.3180 N.am   39  ALA39      -0.1963
     14  CA       134.9950   52.2170   53.0710 C.3    39  ALA39       0.1728
     15  C        136.0580   52.1860   51.9900 C.2    39  ALA39       0.2616
     16  O        136.8610   53.1240   51.8790 O.2    39  ALA39      -0.2715
     17  CB       133.9570   53.2590   52.7410 C.3    39  ALA39       0.0334
     18  N        136.0650   51.1240   51.1900 N.am   40  ASP40      -0.1971
     19  CA       137.0560   51.0040   50.1460 C.3    40  ASP40       0.1709
     20  C        136.5370   51.4610   48.7990 C.2    40  ASP40       0.2293
     21  O        135.8080   50.7460   48.1290 O.2    40  ASP40      -0.2864
     22  CB       137.5400   49.5690   50.0700 C.3    40  ASP40       0.1436
     23  CG       138.5060   49.2280   51.1780 C.2    40  ASP40       0.3671
     24  OD1      138.2260   49.5710   52.3490 O.co2  40  ASP40      -0.2456
     25  OD2      139.5480   48.6090   50.8830 O.co2  40  ASP40      -0.2456
     26  N        136.5280   51.1930   45.7730 N.3    42  THR42      -0.1218
     27  CA       136.9090   50.3670   44.6370 C.3    42  THR42       0.1862
     28  C        136.1230   50.8820   43.4320 C.2    42  THR42       0.2287
     29  O        136.5570   50.7820   42.2870 O.2    42  THR42      -0.2866
     30  CB       136.5540   48.9020   44.8950 C.3    42  THR42       0.1770
     31  OG1      135.2120   48.8260   45.3870 O.3    42  THR42      -0.2211
     32  CG2      137.4950   48.2930   45.9190 C.3    42  THR42       0.0375
     33  N        125.8040   54.3040   48.3370 N.3    47  HIS47      -0.1241
     34  CA       124.4300   53.9790   48.0020 C.3    47  HIS47       0.1621
     35  C        123.6280   53.6830   49.2520 C.2    47  HIS47       0.2264
     36  O        124.1700   53.6940   50.3510 O.2    47  HIS47      -0.2867
     37  CB       124.4050   52.7840   47.0670 C.3    47  HIS47       0.0745
     38  CG       125.1770   51.6140   47.5760 C.ar   47  HIS47       0.0817
     39  ND1      125.0700   51.1220   48.8580 N.ar   47  HIS47      -0.2268
     40  CD2      126.0610   50.8070   46.9400 C.ar   47  HIS47       0.1154
     41  CE1      125.8730   50.0550   48.9570 C.ar   47  HIS47       0.1986
     42  NE2      126.4960   49.8220   47.8180 N.ar   47  HIS47      -0.2212
     43  N        122.8220   51.1370   50.5960 N.3    49  GLY49      -0.1210
     44  CA       123.4060   50.0950   51.4220 C.3    49  GLY49       0.1956
     45  C        124.2240   50.7640   52.5180 C.2    49  GLY49       0.2611
     46  O        123.9940   50.5650   53.7220 O.2    49  GLY49      -0.2717
     47  N        125.1810   51.5800   52.0830 N.am   50  HIS50      -0.1975
     48  CA       126.0470   52.3250   52.9760 C.3    50  HIS50       0.1656
     49  C        125.2360   53.1460   53.9510 C.2    50  HIS50       0.2291
     50  O        125.6060   53.2850   55.1140 O.2    50  HIS50      -0.2864
     51  CB       126.8980   53.2620   52.1700 C.3    50  HIS50       0.0771
     52  CG       127.7990   52.5730   51.2110 C.ar   50  HIS50       0.0820
     53  ND1      127.7560   52.7620   49.8470 N.ar   50  HIS50      -0.2267
     54  CD2      128.8690   51.7750   51.4430 C.ar   50  HIS50       0.1154
     55  CE1      128.7940   52.1080   49.3100 C.ar   50  HIS50       0.1986
     56  NE2      129.4960   51.4940   50.2430 N.ar   50  HIS50      -0.2212
     57  N        122.8780   52.4340   55.5310 N.3    52  VAL52      -0.1231
     58  CA       122.5410   51.6050   56.6820 C.3    52  VAL52       0.1692
     59  C        123.5150   51.8340   57.8260 C.2    52  VAL52       0.2591
     60  O        123.1080   52.0620   58.9670 O.2    52  VAL52      -0.2718
     61  CB       122.5430   50.1010   56.3140 C.3    52  VAL52       0.0266
     62  CG1      122.2110   49.2530   57.5450 C.3    52  VAL52       0.0020
     63  CG2      121.5310   49.8390   55.2100 C.3    52  VAL52       0.0020
     64  N        124.8070   51.7780   57.5220 N.am   53  VAL53      -0.1980
     65  CA       125.8210   51.9860   58.5500 C.3    53  VAL53       0.1595
     66  C        126.0510   53.4700   58.8010 C.2    53  VAL53       0.2287
     67  O        126.3300   53.8780   59.9260 O.2    53  VAL53      -0.2864
     68  CB       127.1680   51.3280   58.1710 C.3    53  VAL53       0.0276
     69  CG1      127.0050   49.8130   58.0890 C.3    53  VAL53       0.0022
     70  CG2      127.6670   51.8860   56.8460 C.3    53  VAL53       0.0022
     71  N        139.3370   39.4810   44.4750 N.3    88  ARG88      -0.1245
     72  CA       138.8980   40.7390   43.8980 C.3    88  ARG88       0.1563
     73  C        140.0300   41.1360   42.9650 C.2    88  ARG88       0.2260
     74  O        141.1790   40.7630   43.1840 O.2    88  ARG88      -0.2867
     75  CB       138.7510   41.8000   44.9830 C.3    88  ARG88       0.0307
     76  CG       137.5370   41.6330   45.8400 C.3    88  ARG88       0.0489
     77  CD       137.5210   42.6490   46.9610 C.3    88  ARG88       0.2205
     78  NE       136.1750   42.9410   47.4640 N.pl3  88  ARG88      -0.0865
     79  CZ       135.3020   43.7240   46.8370 C.cat  88  ARG88       0.5346
     80  NH1      135.6370   44.2920   45.6860 N.pl3  88  ARG88       0.1354
     81  NH2      134.0990   43.9360   47.3550 N.pl3  88  ARG88       0.1354
     82  N        133.2040   59.5800   47.6190 N.3   103  TYR103     -0.1241
     83  CA       132.9250   59.1830   49.0020 C.3   103  TYR103      0.1605
     84  C        132.9500   60.3100   50.0340 C.2   103  TYR103      0.2264
     85  O        132.1300   60.3530   50.9630 O.2   103  TYR103     -0.2867
     86  CB       133.9180   58.1140   49.4640 C.3   103  TYR103      0.0534
     87  CG       133.6310   56.7320   48.9600 C.ar  103  TYR103     -0.0201
     88  CD1      133.6730   55.6350   49.8240 C.ar  103  TYR103     -0.0009
     89  CD2      133.3400   56.5060   47.6150 C.ar  103  TYR103     -0.0009
     90  CE1      133.4310   54.3390   49.3580 C.ar  103  TYR103      0.0417
     91  CE2      133.0990   55.2150   47.1340 C.ar  103  TYR103      0.0417
     92  CZ       133.1470   54.1390   48.0100 C.ar  103  TYR103      0.1957
     93  OH       132.9130   52.8700   47.5340 O.3   103  TYR103     -0.2866
     94  N        132.2220   50.4400   63.2200 N.3   187  MET187     -0.1230
     95  CA       130.9090   50.1630   62.6640 C.3   187  MET187      0.1705
     96  C        131.0280   49.2300   61.4590 C.2   187  MET187      0.2632
     97  O        132.0890   49.1380   60.8510 O.2   187  MET187     -0.2714
     98  CB       130.2670   51.4830   62.2490 C.3   187  MET187      0.0401
     99  CG       128.8270   51.3790   61.7850 C.3   187  MET187      0.0596
    100  SD       127.7340   50.8890   63.1210 S.3   187  MET187     -0.1393
    101  CE       128.0210   52.2260   64.2550 C.3   187  MET187      0.0692
    102  N        129.9500   48.5310   61.1150 N.am  188  GLY188     -0.1718
    103  CA       130.0080   47.6480   59.9610 C.2   188  GLY188      0.1480
    104  C        128.8030   46.7910   59.5790 C.2   188  GLY188      0.2821
    105  O        127.8750   46.5590   60.3530 O.2   188  GLY188     -0.2669
    106  N        128.8200   46.3180   58.3430 N.am  189  GLY189     -0.1920
    107  CA       127.7600   45.4540   57.8870 C.3   189  GLY189      0.1872
    108  C        128.1120   44.0910   58.4440 C.2   189  GLY189      0.2310
    109  O        129.2630   43.8330   58.7650 O.2   189  GLY189     -0.2863
    110  N        128.7470   41.4840   57.1090 N.3   191  ASP191     -0.1225
    111  CA       129.7870   40.8000   56.3510 C.3   191  ASP191      0.1805
    112  C        131.1830   41.2450   56.7530 C.2   191  ASP191      0.2597
    113  O        132.1550   40.9400   56.0670 O.2   191  ASP191     -0.2718
    114  CB       129.5790   41.0000   54.8360 C.3   191  ASP191      0.1424
    115  CG       130.0500   42.3680   54.3330 C.2   191  ASP191      0.3668
    116  OD1      129.7440   43.3980   54.9780 O.co2 191  ASP191     -0.2456
    117  OD2      130.7160   42.4100   53.2710 O.co2 191  ASP191     -0.2456
    118  N        131.2750   41.9490   57.8780 N.am  192  GLN192     -0.1979
    119  CA       132.5440   42.4650   58.3960 C.3   192  GLN192      0.1601
    120  C        132.8210   41.9690   59.8140 C.2   192  GLN192      0.2287
    121  O        133.6880   42.5000   60.5150 O.2   192  GLN192     -0.2864
    122  CB       132.5100   43.9900   58.4160 C.3   192  GLN192      0.0394
    123  CG       132.4010   44.6270   57.0690 C.3   192  GLN192      0.0908
    124  CD       133.7010   44.5910   56.3240 C.2   192  GLN192      0.2608
    125  OE1      134.7360   45.0190   56.8390 O.2   192  GLN192     -0.2717
    126  NE2      133.6640   44.0940   55.1010 N.am  192  GLN192     -0.0878
    127  N        122.5890   45.1940   59.9200 N.3   217  PRO217     -0.2102
    128  CA       122.0600   44.2550   58.9250 C.3   217  PRO217      0.1504
    129  C        122.4590   44.6930   57.5340 C.2   217  PRO217      0.2576
    130  O        122.6530   45.8800   57.2920 O.2   217  PRO217     -0.2718
    131  CB       120.5560   44.3600   59.1180 C.3   217  PRO217      0.0282
    132  CG       120.4150   44.7620   60.5370 C.3   217  PRO217      0.0208
    133  CD       121.5040   45.7720   60.7270 C.3   217  PRO217      0.0893
    134  N        122.5850   43.7470   56.6160 N.am  218  LEU218     -0.1966
    135  CA       122.9310   44.0970   55.2480 C.3   218  LEU218      0.1728
    136  C        121.6540   44.3790   54.4520 C.2   218  LEU218      0.2616
    137  O        120.6870   43.6170   54.5170 O.2   218  LEU218     -0.2715
    138  CB       123.7080   42.9570   54.6030 C.3   218  LEU218      0.0311
    139  CG       125.2040   43.0010   54.8850 C.3   218  LEU218      0.0022
    140  CD1      125.8800   41.7320   54.3970 C.3   218  LEU218      0.0001
    141  CD2      125.7870   44.2190   54.1810 C.3   218  LEU218      0.0001
    142  N        121.6370   45.4800   53.7130 N.am  219  LEU219     -0.1977
    143  CA       120.4660   45.8230   52.9190 C.3   219  LEU219      0.1596
    144  C        120.5510   45.0640   51.6020 C.2   219  LEU219      0.2287
    145  O        121.5720   45.1370   50.9110 O.2   219  LEU219     -0.2864
    146  CB       120.4510   47.3210   52.6440 C.3   219  LEU219      0.0297
    147  CG       119.3720   47.8290   51.6990 C.3   219  LEU219      0.0022
    148  CD1      118.1260   48.1770   52.4800 C.3   219  LEU219      0.0001
    149  CD2      119.8940   49.0440   50.9650 C.3   219  LEU219      0.0001
    150  N        123.0330   41.2520   48.3240 N.3   227  LYS227     -0.1231
    151  CA       123.0790   42.5330   49.0110 C.3   227  LYS227      0.1693
    152  C        123.4240   43.6410   48.0550 C.2   227  LYS227      0.2592
    153  O        124.0790   43.4190   47.0420 O.2   227  LYS227     -0.2718
    154  CB       124.1100   42.5120   50.1370 C.3   227  LYS227      0.0285
    155  CG       125.4670   43.0600   49.7700 C.3   227  LYS227      0.0035
    156  CD       126.2790   43.2610   51.0380 C.3   227  LYS227      0.0206
    157  CE       127.4620   44.1950   50.8230 C.3   227  LYS227      0.1093
    158  NZ       128.3900   43.6990   49.7610 N.3   227  LYS227     -0.1314
    159  N        122.9900   44.8450   48.3850 N.am  228  MET228     -0.1965
    160  CA       123.2840   45.9650   47.5250 C.3   228  MET228      0.1736
    161  C        124.7760   46.1590   47.4700 C.2   228  MET228      0.2617
    162  O        125.4460   46.1290   48.4970 O.2   228  MET228     -0.2715
    163  CB       122.6430   47.2270   48.0470 C.3   228  MET228      0.0427
    164  CG       122.6320   48.2880   47.0060 C.3   228  MET228      0.0599
    165  SD       121.4900   49.5600   47.4260 S.3   228  MET228     -0.1393
    166  CE       119.9490   48.6450   47.5120 C.3   228  MET228      0.0692
    167  N        125.2850   46.3730   46.2640 N.am  229  SER229     -0.1936
    168  CA       126.7060   46.5530   46.0560 C.3   229  SER229      0.2055
    169  C        127.0190   47.3170   44.7760 C.2   229  SER229      0.2643
    170  O        126.3360   47.1790   43.7570 O.2   229  SER229     -0.2714
    171  CB       127.3810   45.1850   46.0100 C.3   229  SER229      0.2130
    172  OG       128.3880   45.1530   45.0140 O.3   229  SER229     -0.2179
    173  N        128.0720   48.1180   44.8340 N.am  230  LYS230     -0.1963
    174  CA       128.5060   48.9050   43.6920 C.3   230  LYS230      0.1728
    175  C        128.9310   48.0020   42.5310 C.2   230  LYS230      0.2616
    176  O        128.8920   48.3940   41.3620 O.2   230  LYS230     -0.2715
    177  CB       129.6700   49.7870   44.1300 C.3   230  LYS230      0.0311
    178  CG       130.6730   49.0460   45.0120 C.3   230  LYS230      0.0038
    179  CD       131.3840   50.0090   45.9610 C.3   230  LYS230      0.0206
    180  CE       132.1390   49.2670   47.0630 C.3   230  LYS230      0.1093
    181  NZ       132.8780   50.1990   47.9530 N.3   230  LYS230     -0.1314
    182  N        129.3220   46.7790   42.8620 N.am  231  SER231     -0.1950
    183  CA       129.7790   45.8280   41.8570 C.3   231  SER231      0.1924
    184  C        128.7010   44.9060   41.2920 C.2   231  SER231      0.2314
    185  O        128.9330   44.2100   40.3090 O.2   231  SER231     -0.2863
    186  CB       130.8940   44.9840   42.4550 C.3   231  SER231      0.2116
    187  OG       130.4650   44.4620   43.6960 O.3   231  SER231     -0.2180
@<TRIPOS>BOND
     1   185   184    2
     2   184   183    1
     3   176   175    2
     4   183   186    1
     5   183   182    1
     6    29    28    2
     7   186   187    1
     8   175   182   am
     9   175   174    1
    10    73    74    2
    11    73    72    1
    12    28    27    1
    13   174   177    1
    14   174   173    1
    15   170   169    2
    16    72    71    1
    17    72    75    1
    18   177   178    1
    19    27    30    1
    20    27    26    1
    21   169   173   am
    22   169   168    1
    23    30    31    1
    24    30    32    1
    25    75    76    1
    26   178   179    1
    27   172   171    1
    28    80    79    1
    29    76    77    1
    30   179   180    1
    31   171   168    1
    32   168   167    1
    33   167   161   am
    34    79    81    1
    35    79    78    2
    36    40    38   ar
    37    40    42   ar
    38    77    78    1
    39   164   165    1
    40   164   163    1
    41   153   152    2
    42   180   181    1
    43    37    38    1
    44    37    34    1
    45    91    89   ar
    46    91    92   ar
    47   165   166    1
    48   161   160    1
    49   161   162    2
    50   160   163    1
    51   160   159    1
    52    93    92    1
    53    38    39   ar
    54    89    87   ar
    55    82    83    1
    56    42    41   ar
    57    34    33    1
    58    34    35    1
    59    92    90   ar
    60   152   159   am
    61   152   151    1
    62    21    20    2
    63   150   151    1
    64    20    19    1
    65    39    41   ar
    66    87    86    1
    67    87    88   ar
    68    83    86    1
    69    83    84    1
    70   151   154    1
    71    35    36    2
    72    55    53   ar
    73    55    56   ar
    74    90    88   ar
    75   158   157    1
    76   155   154    1
    77   155   156    1
    78    53    52   ar
    79    84    85    2
    80    22    19    1
    81    22    23    1
    82    19    18    1
    83    56    54   ar
    84    43    44    1
    85   157   156    1
    86    25    23   ar
    87   145   144    2
    88   149   147    1
    89    23    24   ar
    90    18    15   am
    91    52    54   ar
    92    52    51    1
    93    44    45    1
    94   144   143    1
    95   147   148    1
    96   147   146    1
    97    16    15    2
    98    15    14    1
    99    47    45   am
   100    47    48    1
   101    51    48    1
   102    45    46    2
   103   146   143    1
   104    17    14    1
   105   143   142    1
   106    48    49    1
   107    14    13    1
   108   117   115   ar
   109   142   136   am
   110    49    50    2
   111   141   139    1
   112    13    11   am
   113   115   114    1
   114   115   116   ar
   115   140   139    1
   116   136   137    2
   117   136   135    1
   118   138   139    1
   119   138   135    1
   120   114   111    1
   121   126   124   am
   122    63    61    1
   123   135   134    1
   124    11    12    2
   125    11    10    1
   126    57    58    1
   127   113   112    2
   128    61    58    1
   129    61    62    1
   130   124   125    2
   131   124   123    1
   132   111   112    1
   133   111   110    1
   134   134   129   am
   135    58    59    1
   136    10     9    1
   137   112   118   am
   138    70    68    1
   139   123   122    1
   140   130   129    2
   141    64    59   am
   142    64    65    1
   143   129   128    1
   144    59    60    2
   145   118   119    1
   146   107   106    1
   147   107   108    1
   148     9     3   am
   149     7     6    1
   150    69    68    1
   151     4     3    2
   152     8     6    1
   153    68    65    1
   154     6     5    1
   155   106   104   am
   156   119   122    1
   157   119   120    1
   158   108   109    2
   159     3     2    1
   160    65    66    1
   161    66    67    2
   162   128   131    1
   163   128   127    1
   164   131   132    1
   165   104   103    1
   166   104   105    2
   167     5     2    1
   168     2     1    1
   169   120   121    2
   170   127   133    1
   171   103   102    2
   172   132   133    1
   173    97    96    2
   174   102    96    1
   175    96    95    1
   176    99    98    1
   177    99   100    1
   178    98    95    1
   179    95    94    1
   180   100   101    1
