@<TRIPOS>MOLECULE
tmp/1h3eA01.pdb
 133 120 0 0 0
SMALL
GASTEIGER

@<TRIPOS>ATOM
      1  N        134.5960   54.2760   64.4930 N.3    36  LYS36      -0.1245
      2  CA       135.2750   54.0100   63.2390 C.3    36  LYS36       0.1561
      3  C        134.3810   53.3790   62.1850 C.2    36  LYS36       0.2260
      4  O        133.5370   52.5370   62.4920 O.2    36  LYS36      -0.2867
      5  CB       136.4690   53.0840   63.4920 C.3    36  LYS36       0.0271
      6  CG       137.2000   52.6350   62.2410 C.3    36  LYS36       0.0035
      7  CD       138.2080   51.5600   62.5640 C.3    36  LYS36       0.0206
      8  CE       138.7300   50.9320   61.2880 C.3    36  LYS36       0.1093
      9  NZ       139.4180   49.6190   61.5050 N.3    36  LYS36      -0.1314
     10  N        135.1790   52.4270   57.9450 N.3    38  GLY38      -0.1210
     11  CA       135.9520   52.5600   56.7260 C.3    38  GLY38       0.1956
     12  C        135.1560   52.1660   55.4870 C.2    38  GLY38       0.2612
     13  O        134.1030   51.5310   55.5860 O.2    38  GLY38      -0.2717
     14  N        135.6550   52.5450   54.3180 N.am   39  ALA39      -0.1965
     15  CA       134.9950   52.2170   53.0710 C.3    39  ALA39       0.1728
     16  C        136.0580   52.1860   51.9900 C.2    39  ALA39       0.2616
     17  O        136.8610   53.1240   51.8790 O.2    39  ALA39      -0.2715
     18  CB       133.9570   53.2590   52.7410 C.3    39  ALA39       0.0334
     19  N        136.0650   51.1240   51.1900 N.am   40  ASP40      -0.1971
     20  CA       137.0560   51.0040   50.1460 C.3    40  ASP40       0.1709
     21  C        136.5370   51.4610   48.7990 C.2    40  ASP40       0.2293
     22  O        135.8080   50.7460   48.1290 O.2    40  ASP40      -0.2864
     23  CB       137.5400   49.5690   50.0700 C.3    40  ASP40       0.1436
     24  CG       138.5060   49.2280   51.1780 C.2    40  ASP40       0.3671
     25  OD1      138.2260   49.5710   52.3490 O.co2  40  ASP40      -0.2456
     26  OD2      139.5480   48.6090   50.8830 O.co2  40  ASP40      -0.2456
     27  N        137.2690   56.4410   57.6560 N.3    70  ILE70      -0.1245
     28  CA       138.5160   56.0000   57.0720 C.3    70  ILE70       0.1561
     29  C        138.3250   55.6660   55.6050 C.2    70  ILE70       0.2260
     30  O        137.6080   54.7340   55.2680 O.2    70  ILE70      -0.2867
     31  CB       139.0370   54.7580   57.8120 C.3    70  ILE70       0.0252
     32  CG1      139.4000   55.1350   59.2500 C.3    70  ILE70       0.0019
     33  CG2      140.2380   54.1810   57.0930 C.3    70  ILE70       0.0019
     34  CD1      140.0460   54.0060   60.0460 C.3    70  ILE70       0.0001
     35  N        139.4920   53.9110   52.7320 N.3    72  GLY72      -0.1225
     36  CA       140.4210   52.8440   52.4070 C.3    72  GLY72       0.1811
     37  C        141.0230   52.9290   51.0280 C.2    72  GLY72       0.2280
     38  O        140.7040   52.1270   50.1540 O.2    72  GLY72      -0.2866
     39  N        143.7810   49.9010   51.4740 N.3    75  THR75      -0.1218
     40  CA       143.1020   48.6240   51.5630 C.3    75  THR75       0.1862
     41  C        142.4290   48.3600   50.2340 C.2    75  THR75       0.2287
     42  O        142.5500   47.2820   49.6720 O.2    75  THR75      -0.2866
     43  CB       142.0330   48.6450   52.6440 C.3    75  THR75       0.1770
     44  OG1      141.3430   49.9020   52.6080 O.3    75  THR75      -0.2211
     45  CG2      142.6630   48.4460   54.0040 C.3    75  THR75       0.0375
     46  N        139.1820   43.7940   49.7350 N.3    80  ASP80      -0.1239
     47  CA       138.6160   43.0450   50.8600 C.3    80  ASP80       0.1674
     48  C        137.9300   41.7820   50.4070 C.2    80  ASP80       0.2266
     49  O        136.9330   41.8310   49.6970 O.2    80  ASP80      -0.2867
     50  CB       137.6110   43.9010   51.6290 C.3    80  ASP80       0.1410
     51  CG       137.1610   43.2490   52.9260 C.2    80  ASP80       0.3668
     52  OD1      136.5090   43.9340   53.7640 O.co2  80  ASP80      -0.2456
     53  OD2      137.4660   42.0460   53.0990 O.co2  80  ASP80      -0.2456
     54  N        143.5790   55.6820   55.0280 N.3   123  ASN123     -0.1240
     55  CA       144.6020   54.8460   55.6660 C.3   123  ASN123      0.1653
     56  C        145.9450   54.7410   54.9370 C.2   123  ASN123      0.2266
     57  O        146.9200   54.2720   55.5080 O.2   123  ASN123     -0.2867
     58  CB       144.0740   53.4380   56.0270 C.3   123  ASN123      0.1155
     59  CG       143.4770   52.6920   54.8590 C.2   123  ASN123      0.2627
     60  OD1      143.7150   53.0040   53.6840 O.2   123  ASN123     -0.2716
     61  ND2      142.7010   51.6670   55.1840 N.am  123  ASN123     -0.0877
     62  N        144.6950   41.5380   54.1020 N.3   170  TYR170     -0.1241
     63  CA       143.6000   42.5010   54.2760 C.3   170  TYR170      0.1605
     64  C        143.0490   42.6050   55.6830 C.2   170  TYR170      0.2264
     65  O        142.8790   43.6980   56.2130 O.2   170  TYR170     -0.2867
     66  CB       142.4380   42.2220   53.3200 C.3   170  TYR170      0.0534
     67  CG       141.4870   43.3970   53.2120 C.ar  170  TYR170     -0.0201
     68  CD1      141.5070   44.2460   52.0930 C.ar  170  TYR170     -0.0009
     69  CD2      140.6330   43.7140   54.2630 C.ar  170  TYR170     -0.0009
     70  CE1      140.6950   45.3910   52.0380 C.ar  170  TYR170      0.0417
     71  CE2      139.8280   44.8420   54.2240 C.ar  170  TYR170      0.0417
     72  CZ       139.8590   45.6760   53.1170 C.ar  170  TYR170      0.1957
     73  OH       139.0510   46.7900   53.1170 O.3   170  TYR170     -0.2866
     74  N        143.2770   46.2720   57.7450 N.3   174  GLN174     -0.1245
     75  CA       142.1070   46.9410   58.2980 C.3   174  GLN174      0.1566
     76  C        142.2620   47.0120   59.7990 C.2   174  GLN174      0.2260
     77  O        142.0220   48.0470   60.4110 O.2   174  GLN174     -0.2867
     78  CB       140.8160   46.1810   57.9500 C.3   174  GLN174      0.0367
     79  CG       139.5350   46.7710   58.5590 C.3   174  GLN174      0.0905
     80  CD       138.2410   46.1790   57.9670 C.2   174  GLN174      0.2608
     81  OE1      138.1470   45.9400   56.7630 O.2   174  GLN174     -0.2717
     82  NE2      137.2340   45.9710   58.8140 N.am  174  GLN174     -0.0878
     83  N        144.2850   50.0000   61.0770 N.3   177  ASP177     -0.1239
     84  CA       143.5830   51.2680   61.0670 C.3   177  ASP177      0.1674
     85  C        142.9720   51.5200   62.4490 C.2   177  ASP177      0.2266
     86  O        142.8710   52.6630   62.8900 O.2   177  ASP177     -0.2867
     87  CB       142.4920   51.2730   59.9880 C.3   177  ASP177      0.1410
     88  CG       143.0590   51.1550   58.5760 C.2   177  ASP177      0.3668
     89  OD1      142.2820   51.2400   57.6020 O.co2 177  ASP177     -0.2456
     90  OD2      144.2880   50.9740   58.4250 O.co2 177  ASP177     -0.2456
     91  N        134.0330   50.1120   66.1040 N.3   186  GLU186     -0.1231
     92  CA       134.1510   50.0330   64.6420 C.3   186  GLU186      0.1699
     93  C        132.7810   49.6350   64.1100 C.2   186  GLU186      0.2592
     94  O        132.2320   48.6260   64.5200 O.2   186  GLU186     -0.2718
     95  CB       135.1900   49.0020   64.1960 C.3   186  GLU186      0.0402
     96  CG       135.9730   49.5110   63.0100 C.3   186  GLU186      0.1161
     97  CD       136.7530   48.4440   62.2680 C.2   186  GLU186      0.3649
     98  OE1      137.5050   47.6840   62.9220 O.co2 186  GLU186     -0.2457
     99  OE2      136.6220   48.3810   61.0170 O.co2 186  GLU186     -0.2457
    100  N        132.2220   50.4400   63.2200 N.am  187  MET187     -0.1979
    101  CA       130.9090   50.1630   62.6640 C.3   187  MET187      0.1605
    102  C        131.0280   49.2300   61.4590 C.2   187  MET187      0.2287
    103  O        132.0890   49.1380   60.8510 O.2   187  MET187     -0.2864
    104  CB       130.2670   51.4830   62.2490 C.3   187  MET187      0.0413
    105  CG       128.8270   51.3790   61.7850 C.3   187  MET187      0.0598
    106  SD       127.7340   50.8890   63.1210 S.3   187  MET187     -0.1393
    107  CE       128.0210   52.2260   64.2550 C.3   187  MET187      0.0692
    108  N        131.2750   41.9490   57.8780 N.3   192  GLN192     -0.1245
    109  CA       132.5440   42.4650   58.3960 C.3   192  GLN192      0.1566
    110  C        132.8210   41.9690   59.8140 C.2   192  GLN192      0.2260
    111  O        133.6880   42.5000   60.5150 O.2   192  GLN192     -0.2867
    112  CB       132.5100   43.9900   58.4160 C.3   192  GLN192      0.0367
    113  CG       132.4010   44.6270   57.0690 C.3   192  GLN192      0.0905
    114  CD       133.7010   44.5910   56.3240 C.2   192  GLN192      0.2608
    115  OE1      134.7360   45.0190   56.8390 O.2   192  GLN192     -0.2717
    116  NE2      133.6640   44.0940   55.1010 N.am  192  GLN192     -0.0878
    117  N        136.1720   43.0270   61.8370 N.3   196  LEU196     -0.1245
    118  CA       135.9810   43.7750   63.0710 C.3   196  LEU196      0.1561
    119  C        136.5360   43.0440   64.2800 C.2   196  LEU196      0.2260
    120  O        136.9400   43.6650   65.2680 O.2   196  LEU196     -0.2867
    121  CB       134.5070   44.0330   63.3040 C.3   196  LEU196      0.0270
    122  CG       134.0010   45.4150   62.9460 C.3   196  LEU196      0.0019
    123  CD1      134.3760   45.7700   61.5190 C.3   196  LEU196      0.0001
    124  CD2      132.5060   45.4120   63.1380 C.3   196  LEU196      0.0001
    125  N        128.0720   48.1180   44.8340 N.3   230  LYS230     -0.1245
    126  CA       128.5060   48.9050   43.6920 C.3   230  LYS230      0.1561
    127  C        128.9310   48.0020   42.5310 C.2   230  LYS230      0.2260
    128  O        128.8920   48.3940   41.3620 O.2   230  LYS230     -0.2867
    129  CB       129.6700   49.7870   44.1300 C.3   230  LYS230      0.0271
    130  CG       130.6730   49.0460   45.0120 C.3   230  LYS230      0.0035
    131  CD       131.3840   50.0090   45.9610 C.3   230  LYS230      0.0206
    132  CE       132.1390   49.2670   47.0630 C.3   230  LYS230      0.1093
    133  NZ       132.8780   50.1990   47.9530 N.3   230  LYS230     -0.1314
@<TRIPOS>BOND
     1   128   127    2
     2   127   126    1
     3   126   129    1
     4   126   125    1
     5   129   130    1
     6   130   131    1
     7   131   132    1
     8   132   133    1
     9    22    21    2
    10    21    20    1
    11    42    41    2
    12    49    48    2
    13    46    47    1
    14    23    20    1
    15    23    24    1
    16    20    19    1
    17    38    37    2
    18    41    40    1
    19    48    47    1
    20    47    50    1
    21    26    24   ar
    22    37    36    1
    23    24    25   ar
    24    19    16   am
    25    39    40    1
    26    40    43    1
    27    50    51    1
    28    17    16    2
    29    16    15    1
    30    70    68   ar
    31    70    72   ar
    32    68    67   ar
    33    36    35    1
    34    44    43    1
    35    43    45    1
    36    18    15    1
    37    51    53   ar
    38    51    52   ar
    39    15    14    1
    40    73    72    1
    41    72    71   ar
    42    67    66    1
    43    67    69   ar
    44    66    63    1
    45    60    59    2
    46    62    63    1
    47    71    69   ar
    48    63    64    1
    49    14    12   am
    50    59    61   am
    51    59    58    1
    52    56    57    2
    53    56    55    1
    54    54    55    1
    55   116   114   am
    56    30    29    2
    57    12    13    2
    58    12    11    1
    59    29    28    1
    60    55    58    1
    61    64    65    2
    62   114   115    2
    63   114   113    1
    64    11    10    1
    65    81    80    2
    66   113   112    1
    67    28    27    1
    68    28    31    1
    69    33    31    1
    70    89    88   ar
    71    74    75    1
    72    31    32    1
    73   108   109    1
    74    78    75    1
    75    78    79    1
    76    80    79    1
    77    80    82   am
    78    75    76    1
    79   109   112    1
    80   109   110    1
    81    90    88   ar
    82    88    87    1
    83    32    34    1
    84    76    77    2
    85   110   111    2
    86    87    84    1
    87   103   102    2
    88    99    97   ar
    89    84    83    1
    90    84    85    1
    91     8     9    1
    92     8     7    1
    93   102   101    1
    94   123   122    1
    95   105   104    1
    96   105   106    1
    97   117   118    1
    98     3     4    2
    99     3     2    1
   100     6     7    1
   101     6     5    1
   102   104   101    1
   103    97    98   ar
   104    97    96    1
   105    85    86    2
   106   101   100    1
   107   122   124    1
   108   122   121    1
   109    96    95    1
   110   118   121    1
   111   118   119    1
   112   106   107    1
   113   100    93   am
   114     2     5    1
   115     2     1    1
   116    93    94    2
   117    93    92    1
   118    95    92    1
   119   119   120    2
   120    92    91    1
