@<TRIPOS>MOLECULE
tmp/1h3hA00.pdb
 146 146 0 0 0
SMALL
GASTEIGER

@<TRIPOS>ATOM
      1  N         -0.7220    9.8400    4.8440 N.3    10  TYR10      -0.1241
      2  CA         0.4510   10.6420    4.5260 C.3    10  TYR10       0.1605
      3  C          0.9540   10.2700    3.1360 C.2    10  TYR10       0.2264
      4  O          0.3910    9.3860    2.4890 O.2    10  TYR10      -0.2867
      5  CB         1.5640   10.4180    5.5560 C.3    10  TYR10       0.0534
      6  CG         1.0670   10.1350    6.9570 C.ar   10  TYR10      -0.0201
      7  CD1        0.6000   11.1610    7.7680 C.ar   10  TYR10      -0.0009
      8  CD2        1.0710    8.8420    7.4690 C.ar   10  TYR10      -0.0009
      9  CE1        0.1520   10.9080    9.0510 C.ar   10  TYR10       0.0417
     10  CE2        0.6230    8.5820    8.7510 C.ar   10  TYR10       0.0417
     11  CZ         0.1650    9.6180    9.5370 C.ar   10  TYR10       0.1957
     12  OH        -0.2800    9.3630   10.8140 O.3    10  TYR10      -0.2866
     13  N          5.5100    5.8800    0.3590 N.3    13  GLU13      -0.1245
     14  CA         6.8730    5.4170    0.6140 C.3    13  GLU13       0.1567
     15  C          7.4190    4.6080   -0.5550 C.2    13  GLU13       0.2260
     16  O          8.4690    3.9760   -0.4400 O.2    13  GLU13      -0.2867
     17  CB         6.9120    4.5500    1.8690 C.3    13  GLU13       0.0388
     18  CG         6.3390    5.2310    3.0950 C.3    13  GLU13       0.1160
     19  CD         7.3750    5.4390    4.1820 C.2    13  GLU13       0.3649
     20  OE1        7.7260    4.4530    4.8640 O.co2  13  GLU13      -0.2457
     21  OE2        7.8360    6.5870    4.3510 O.co2  13  GLU13      -0.2457
     22  N          9.5370    3.8600   -3.2080 N.3    15  LEU15      -0.1231
     23  CA        10.8040    4.3430   -3.7420 C.3    15  LEU15       0.1693
     24  C         11.2650    3.4630   -4.8960 C.2    15  LEU15       0.2591
     25  O         12.1720    3.8250   -5.6450 O.2    15  LEU15      -0.2718
     26  CB        11.8720    4.3700   -2.6450 C.3    15  LEU15       0.0284
     27  CG        11.3520    4.6900   -1.2410 C.3    15  LEU15       0.0019
     28  CD1       12.4270    4.4230   -0.1980 C.3    15  LEU15       0.0001
     29  CD2       10.8790    6.1340   -1.1640 C.3    15  LEU15       0.0001
     30  N         10.6290    2.3040   -5.0310 N.am   16  GLU16      -0.1979
     31  CA        10.9690    1.3630   -6.0960 C.3    16  GLU16       0.1602
     32  C         10.0510    1.5450   -7.3000 C.2    16  GLU16       0.2287
     33  O          9.0570    2.2690   -7.2320 O.2    16  GLU16      -0.2864
     34  CB        10.8770   -0.0750   -5.5860 C.3    16  GLU16       0.0415
     35  CG        12.0240   -0.4710   -4.6720 C.3    16  GLU16       0.1163
     36  CD        13.2380   -0.9600   -5.4370 C.2    16  GLU16       0.3649
     37  OE1       13.5840   -0.3390   -6.4640 O.co2  16  GLU16      -0.2457
     38  OE2       13.8450   -1.9640   -5.0070 O.co2  16  GLU16      -0.2457
     39  N          8.7050   -1.2030   -8.9970 N.3    18  ASP18      -0.1225
     40  CA         7.6960   -2.2550   -8.9060 C.3    18  ASP18       0.1805
     41  C          6.6800   -1.9380   -7.8150 C.2    18  ASP18       0.2597
     42  O          5.8450   -2.7740   -7.4710 O.2    18  ASP18      -0.2718
     43  CB         8.3510   -3.6080   -8.6140 C.3    18  ASP18       0.1424
     44  CG         9.6790   -3.4700   -7.8980 C.2    18  ASP18       0.3668
     45  OD1       10.6920   -3.1900   -8.5730 O.co2  18  ASP18      -0.2456
     46  OD2        9.7070   -3.6430   -6.6610 O.co2  18  ASP18      -0.2456
     47  N          6.7630   -0.7310   -7.2670 N.am   19  GLU19      -0.1979
     48  CA         5.8580   -0.3150   -6.2070 C.3    19  GLU19       0.1602
     49  C          4.8150    0.6720   -6.7170 C.2    19  GLU19       0.2287
     50  O          4.7570    0.9810   -7.9080 O.2    19  GLU19      -0.2864
     51  CB         6.6470    0.3060   -5.0550 C.3    19  GLU19       0.0415
     52  CG         7.3140   -0.7220   -4.1550 C.3    19  GLU19       0.1163
     53  CD         8.4410   -0.1350   -3.3280 C.2    19  GLU19       0.3649
     54  OE1        8.5120    1.1060   -3.2130 O.co2  19  GLU19      -0.2457
     55  OE2        9.2540   -0.9190   -2.7930 O.co2  19  GLU19      -0.2457
     56  N          1.2300  -10.6920    3.8130 N.3    35  ASN35      -0.1226
     57  CA         2.6080  -10.2730    4.0510 C.3    35  ASN35       0.1770
     58  C          2.6890   -9.6040    5.4200 C.2    35  ASN35       0.2439
     59  O          1.6810   -9.1100    5.9260 O.2    35  ASN35      -0.2733
     60  CB         3.0650   -9.2910    2.9790 C.3    35  ASN35       0.1168
     61  CG         3.9630   -9.9220    1.9370 C.2    35  ASN35       0.2627
     62  OD1        4.8880  -10.6680    2.2600 O.2    35  ASN35      -0.2716
     63  ND2        3.6860   -9.6210    0.6730 N.am   35  ASN35      -0.0877
     64  N          3.8690   -9.5860    6.0540 N.am   36  PRO36      -0.2718
     65  CA         4.0300   -8.9870    7.3690 C.3    36  PRO36       0.1535
     66  C          4.4440   -7.5180    7.3280 C.2    36  PRO36       0.2599
     67  O          4.8330   -6.9570    8.3530 O.2    36  PRO36      -0.2715
     68  CB         5.1420   -9.8410    7.9690 C.3    36  PRO36       0.0310
     69  CG         6.0060  -10.2110    6.8030 C.3    36  PRO36       0.0237
     70  CD         5.1320  -10.1660    5.5680 C.3    36  PRO36       0.0939
     71  N          4.3610   -6.8920    6.1550 N.am   37  SER37      -0.1936
     72  CA         4.7360   -5.4840    6.0320 C.3    37  SER37       0.2055
     73  C          4.3600   -4.8990    4.6710 C.2    37  SER37       0.2643
     74  O          3.5480   -3.9800    4.5890 O.2    37  SER37      -0.2714
     75  CB         6.2380   -5.3190    6.2640 C.3    37  SER37       0.2130
     76  OG         6.5130   -4.9980    7.6170 O.3    37  SER37      -0.2179
     77  N          4.9720   -5.4140    3.6100 N.am   38  TRP38      -0.1959
     78  CA         4.7100   -4.9140    2.2620 C.3    38  TRP38       0.1771
     79  C          3.6790   -5.7660    1.5280 C.2    38  TRP38       0.2620
     80  O          3.8990   -6.9530    1.2910 O.2    38  TRP38      -0.2715
     81  CB         6.0090   -4.8830    1.4550 C.3    38  TRP38       0.0590
     82  CG         6.8050   -3.6280    1.6420 C.ar   38  TRP38       0.0006
     83  CD1        7.7140   -3.3730    2.6270 C.ar   38  TRP38       0.0946
     84  CD2        6.7650   -2.4590    0.8180 C.ar   38  TRP38       0.0152
     85  NE1        8.2420   -2.1150    2.4660 N.ar   38  TRP38      -0.2442
     86  CE2        7.6750   -1.5340    1.3620 C.ar   38  TRP38       0.0810
     87  CE3        6.0480   -2.1030   -0.3280 C.ar   38  TRP38       0.0012
     88  CZ2        7.8860   -0.2780    0.8000 C.ar   38  TRP38       0.0191
     89  CZ3        6.2590   -0.8560   -0.8840 C.ar   38  TRP38       0.0001
     90  CH2        7.1710    0.0430   -0.3200 C.ar   38  TRP38       0.0015
     91  N          2.5640   -5.1450    1.1430 N.am   39  TRP39      -0.1960
     92  CA         1.5170   -5.8490    0.4060 C.3    39  TRP39       0.1771
     93  C          1.4470   -5.3460   -1.0330 C.2    39  TRP39       0.2620
     94  O          1.7110   -4.1740   -1.3020 O.2    39  TRP39      -0.2715
     95  CB         0.1380   -5.6680    1.0520 C.3    39  TRP39       0.0590
     96  CG         0.0690   -5.9820    2.5140 C.ar   39  TRP39       0.0006
     97  CD1        0.9060   -6.7850    3.2230 C.ar   39  TRP39       0.0946
     98  CD2       -0.9170   -5.5110    3.4420 C.ar   39  TRP39       0.0152
     99  NE1        0.4990   -6.8550    4.5310 N.ar   39  TRP39      -0.2442
    100  CE2       -0.6130   -6.0740    4.6930 C.ar   39  TRP39       0.0810
    101  CE3       -2.0260   -4.6660    3.3350 C.ar   39  TRP39       0.0012
    102  CZ2       -1.3770   -5.8230    5.8300 C.ar   39  TRP39       0.0191
    103  CZ3       -2.7830   -4.4150    4.4640 C.ar   39  TRP39       0.0001
    104  CH2       -2.4550   -4.9910    5.6970 C.ar   39  TRP39       0.0015
    105  N          1.0800   -6.2340   -1.9500 N.am   40  THR40      -0.1951
    106  CA         0.9610   -5.8730   -3.3590 C.3    40  THR40       0.1897
    107  C         -0.4630   -5.4250   -3.6890 C.2    40  THR40       0.2313
    108  O         -1.4140   -6.1930   -3.5430 O.2    40  THR40      -0.2863
    109  CB         1.3460   -7.0500   -4.2770 C.3    40  THR40       0.1794
    110  OG1        2.6920   -7.4600   -4.0100 O.3    40  THR40      -0.2208
    111  CG2        1.2120   -6.6620   -5.7430 C.3    40  THR40       0.0378
    112  N          3.6120   -2.3080   -5.2180 N.3    49  LEU49      -0.1245
    113  CA         3.6250   -2.6100   -3.7880 C.3    49  LEU49       0.1561
    114  C          3.5280   -1.3290   -2.9630 C.2    49  LEU49       0.2260
    115  O          3.8850   -0.2520   -3.4350 O.2    49  LEU49      -0.2867
    116  CB         4.8970   -3.3810   -3.4190 C.3    49  LEU49       0.0270
    117  CG         5.7040   -3.9170   -4.6060 C.3    49  LEU49       0.0019
    118  CD1        7.1100   -4.2930   -4.1700 C.3    49  LEU49       0.0001
    119  CD2        5.0000   -5.1110   -5.2340 C.3    49  LEU49       0.0001
    120  N          3.4950    0.3810    1.4390 N.3    51  PRO51      -0.2116
    121  CA         3.7920    0.1770    2.8620 C.3    51  PRO51       0.1372
    122  C          2.5280   -0.0030    3.6990 C.2    51  PRO51       0.2244
    123  O          1.8050    0.9600    3.9580 O.2    51  PRO51      -0.2868
    124  CB         4.4840    1.4830    3.2430 C.3    51  PRO51       0.0268
    125  CG         3.8120    2.4980    2.3900 C.3    51  PRO51       0.0207
    126  CD         3.5570    1.8160    1.0740 C.3    51  PRO51       0.0892
    127  N          2.3920   -0.3600    6.6190 N.3    53  ASN53      -0.1225
    128  CA         2.6390    0.2920    7.8980 C.3    53  ASN53       0.1785
    129  C          2.3520    1.7880    7.8040 C.2    53  ASN53       0.2597
    130  O          1.8900    2.4010    8.7660 O.2    53  ASN53      -0.2718
    131  CB         4.0870    0.0490    8.3450 C.3    53  ASN53       0.1169
    132  CG         4.8290    1.3290    8.6850 C.2    53  ASN53       0.2627
    133  OD1        5.0550    1.6350    9.8550 O.2    53  ASN53      -0.2716
    134  ND2        5.2170    2.0820    7.6600 N.am   53  ASN53      -0.0877
    135  N          2.6290    2.3690    6.6400 N.am   54  TYR54      -0.1976
    136  CA         2.4010    3.7930    6.4250 C.3    54  TYR54       0.1639
    137  C          0.9130    4.0940    6.3070 C.2    54  TYR54       0.2290
    138  O          0.4300    5.0910    6.8440 O.2    54  TYR54      -0.2864
    139  CB         3.1310    4.2680    5.1700 C.3    54  TYR54       0.0560
    140  CG         3.7850    5.6210    5.3310 C.ar   54  TYR54      -0.0198
    141  CD1        4.8110    5.8120    6.2470 C.ar   54  TYR54      -0.0009
    142  CD2        3.3770    6.7060    4.5660 C.ar   54  TYR54      -0.0009
    143  CE1        5.4120    7.0470    6.3980 C.ar   54  TYR54       0.0417
    144  CE2        3.9740    7.9440    4.7100 C.ar   54  TYR54       0.0417
    145  CZ         4.9900    8.1090    5.6270 C.ar   54  TYR54       0.1957
    146  OH         5.5870    9.3400    5.7740 O.3    54  TYR54      -0.2866
@<TRIPOS>BOND
     1    39    40    1
     2    40    43    1
     3    40    41    1
     4    43    44    1
     5    45    44   ar
     6    50    49    2
     7    44    46   ar
     8    41    42    2
     9    41    47   am
    10    32    33    2
    11    32    31    1
    12    47    48    1
    13    49    48    1
    14    37    36   ar
    15    48    51    1
    16    31    34    1
    17    31    30    1
    18   111   109    1
    19    25    24    2
    20    34    35    1
    21    36    38   ar
    22    36    35    1
    23   119   117    1
    24   112   113    1
    25    51    52    1
    26    30    24   am
    27    24    23    1
    28   117   118    1
    29   117   116    1
    30   109   110    1
    31   109   106    1
    32    52    53    1
    33   113   116    1
    34   113   114    1
    35    23    22    1
    36    23    26    1
    37   107   108    2
    38   107   106    1
    39   115   114    2
    40   106   105    1
    41    53    54   ar
    42    53    55   ar
    43    26    27    1
    44   105    93   am
    45    94    93    2
    46    27    29    1
    47    27    28    1
    48    93    92    1
    49    89    87   ar
    50    89    90   ar
    51    15    16    2
    52    15    14    1
    53    87    84   ar
    54    90    88   ar
    55    13    14    1
    56    92    95    1
    57    92    91    1
    58    14    17    1
    59    63    61   am
    60    88    86   ar
    61    84    86   ar
    62    84    82   ar
    63    95    96    1
    64   126   120    1
    65   126   125    1
    66    91    79   am
    67    80    79    2
    68    86    85   ar
    69   120   121    1
    70    81    82    1
    71    81    78    1
    72    79    78    1
    73    82    83   ar
    74    17    18    1
    75    61    62    2
    76    61    60    1
    77    78    77    1
    78   125   124    1
    79    85    83   ar
    80     4     3    2
    81    96    97   ar
    82    96    98   ar
    83   121   124    1
    84   121   122    1
    85    60    57    1
    86    18    19    1
    87     3     2    1
    88    97    99   ar
    89   101    98   ar
    90   101   103   ar
    91    98   100   ar
    92    77    73   am
    93   122   123    2
    94    56    57    1
    95    57    58    1
    96    19    21   ar
    97    19    20   ar
    98   103   104   ar
    99     2     1    1
   100     2     5    1
   101    99   100   ar
   102   142   144   ar
   103   142   140   ar
   104    74    73    2
   105    73    72    1
   106   100   102   ar
   107   144   145   ar
   108   139   140    1
   109   139   136    1
   110   140   141   ar
   111    58    59    2
   112    58    64   am
   113     5     6    1
   114    70    64    1
   115    70    69    1
   116   145   146    1
   117   145   143   ar
   118   104   102   ar
   119    72    71    1
   120    72    75    1
   121    64    65    1
   122    71    66   am
   123   141   143   ar
   124    75    76    1
   125   137   136    1
   126   137   138    2
   127   136   135    1
   128   127   128    1
   129   135   129   am
   130    69    68    1
   131     6     8   ar
   132     6     7   ar
   133    66    65    1
   134    66    67    2
   135    65    68    1
   136     8    10   ar
   137   134   132   am
   138     7     9   ar
   139   129   128    1
   140   129   130    2
   141   128   131    1
   142   131   132    1
   143   132   133    2
   144    10    11   ar
   145     9    11   ar
   146    11    12    1
