@<TRIPOS>MOLECULE
tmp/1h3jB01.pdb
 74 71 0 0 0
SMALL
GASTEIGER

@<TRIPOS>ATOM
      1  N         50.7980   56.6220   23.9160 N.3    74  ALA74      -0.1231
      2  CA        50.9440   58.0790   23.9450 C.3    74  ALA74       0.1694
      3  C         49.5720   58.7310   24.1690 C.2    74  ALA74       0.2592
      4  O         49.4460   59.5870   25.0330 O.2    74  ALA74      -0.2718
      5  CB        51.6110   58.6060   22.6630 C.3    74  ALA74       0.0304
      6  N         48.5400   58.2200   23.4910 N.am   75  HIS75      -0.1976
      7  CA        47.1860   58.7480   23.6070 C.3    75  HIS75       0.1656
      8  C         46.1650   57.7570   24.1420 C.2    75  HIS75       0.2291
      9  O         45.0070   57.7220   23.7080 O.2    75  HIS75      -0.2864
     10  CB        46.7500   59.2420   22.2620 C.3    75  HIS75       0.0771
     11  CG        47.7560   60.1320   21.6270 C.ar   75  HIS75       0.0820
     12  ND1       47.8530   61.4750   21.9350 N.ar   75  HIS75      -0.2267
     13  CD2       48.7350   59.8770   20.7220 C.ar   75  HIS75       0.1154
     14  CE1       48.8450   62.0090   21.2410 C.ar   75  HIS75       0.1986
     15  NE2       49.3960   61.0640   20.5010 N.ar   75  HIS75      -0.2212
     16  N         54.2700   51.9560   29.5270 N.3    96  ARG96      -0.1245
     17  CA        54.5880   53.3730   29.5210 C.3    96  ARG96       0.1563
     18  C         55.8490   53.6400   30.3590 C.2    96  ARG96       0.2260
     19  O         56.7780   54.3480   29.9180 O.2    96  ARG96      -0.2867
     20  CB        53.4230   54.1430   30.1200 C.3    96  ARG96       0.0307
     21  CG        53.7050   55.6010   30.3900 C.3    96  ARG96       0.0489
     22  CD        52.4130   56.2880   30.8200 C.3    96  ARG96       0.2205
     23  NE        51.8790   56.8730   29.6140 N.pl3  96  ARG96      -0.0865
     24  CZ        50.6820   56.6640   29.1300 C.cat  96  ARG96       0.5346
     25  NH1       49.8220   55.8690   29.7390 N.pl3  96  ARG96       0.1354
     26  NH2       50.3770   57.2430   28.0030 N.pl3  96  ARG96       0.1354
     27  N         59.1460   52.4160   28.6750 N.3    99  GLY99      -0.1210
     28  CA        59.5830   53.2760   27.5790 C.3    99  GLY99       0.1956
     29  C         60.1880   54.5940   28.0550 C.2    99  GLY99       0.2611
     30  O         61.1790   55.0890   27.4990 O.2    99  GLY99      -0.2717
     31  N         59.5560   55.1740   29.0660 N.am  100  ILE100     -0.1979
     32  CA        60.0230   56.4110   29.6340 C.3   100  ILE100      0.1595
     33  C         61.3560   56.1940   30.3410 C.2   100  ILE100      0.2287
     34  O         62.2840   56.9620   30.1010 O.2   100  ILE100     -0.2864
     35  CB        58.9540   57.0300   30.5550 C.3   100  ILE100      0.0276
     36  CG1       57.8030   57.5400   29.7020 C.3   100  ILE100      0.0022
     37  CG2       59.5040   58.2100   31.3290 C.3   100  ILE100      0.0022
     38  CD1       56.7060   58.0970   30.5190 C.3   100  ILE100      0.0001
     39  N         64.0670   55.4620   27.7550 N.3   103  GLY103     -0.1210
     40  CA        64.1030   56.4290   26.6910 C.3   103  GLY103      0.1956
     41  C         63.9950   55.8590   25.2990 C.2   103  GLY103      0.2612
     42  O         64.7460   56.2820   24.4170 O.2   103  GLY103     -0.2717
     43  N         63.0650   54.9240   25.0870 N.am  104  VAL104     -0.1965
     44  CA        62.8310   54.3200   23.7590 C.3   104  VAL104      0.1727
     45  C         61.4480   54.7710   23.2390 C.2   104  VAL104      0.2617
     46  O         60.5800   55.1060   24.0380 O.2   104  VAL104     -0.2715
     47  CB        62.9100   52.7670   23.8180 C.3   104  VAL104      0.0290
     48  CG1       64.3850   52.3320   24.0900 C.3   104  VAL104      0.0023
     49  CG2       61.9560   52.2170   24.9280 C.3   104  VAL104      0.0023
     50  N         61.2370   54.8170   21.9300 N.am  105  SER105     -0.1936
     51  CA        59.9210   55.2570   21.4630 C.3   105  SER105      0.2055
     52  C         58.8530   54.2280   21.8580 C.2   105  SER105      0.2643
     53  O         59.1640   53.0360   22.0070 O.2   105  SER105     -0.2714
     54  CB        59.8950   55.5250   19.9540 C.3   105  SER105      0.2130
     55  OG        60.0940   54.3660   19.1760 O.3   105  SER105     -0.2179
     56  N         57.6140   54.6910   22.0440 N.am  106  PHE106     -0.1973
     57  CA        56.4990   53.8300   22.4480 C.3   106  PHE106      0.1639
     58  C         56.2080   52.8010   21.3510 C.2   106  PHE106      0.2290
     59  O         55.8510   51.6710   21.6390 O.2   106  PHE106     -0.2864
     60  CB        55.2280   54.6600   22.7390 C.3   106  PHE106      0.0560
     61  CG        55.2480   55.4300   24.0490 C.ar  106  PHE106     -0.0200
     62  CD1       56.0150   55.0210   25.1300 C.ar  106  PHE106     -0.0042
     63  CD2       54.4280   56.5710   24.2080 C.ar  106  PHE106     -0.0042
     64  CE1       55.9780   55.7270   26.3570 C.ar  106  PHE106     -0.0003
     65  CE2       54.3850   57.2790   25.4320 C.ar  106  PHE106     -0.0003
     66  CZ        55.1720   56.8430   26.5050 C.ar  106  PHE106     -0.0000
     67  N         58.9460   58.8180   18.2060 N.3   135  ASN135     -0.1240
     68  CA        58.1240   58.7090   19.4120 C.3   135  ASN135      0.1653
     69  C         56.8830   59.6000   19.3500 C.2   135  ASN135      0.2266
     70  O         55.9840   59.4900   20.1810 O.2   135  ASN135     -0.2867
     71  CB        58.9330   59.0660   20.6470 C.3   135  ASN135      0.1155
     72  CG        58.1750   58.8380   21.9260 C.2   135  ASN135      0.2627
     73  OD1       57.6780   57.7340   22.1750 O.2   135  ASN135     -0.2716
     74  ND2       58.0840   59.8810   22.7470 N.am  135  ASN135     -0.0877
@<TRIPOS>BOND
     1    67    68    1
     2    55    54    1
     3    69    68    1
     4    69    70    2
     5    68    71    1
     6    54    51    1
     7    15    13   ar
     8    15    14   ar
     9    71    72    1
    10    13    11   ar
    11    14    12   ar
    12    58    59    2
    13    58    57    1
    14    51    52    1
    15    51    50    1
    16    11    12   ar
    17    11    10    1
    18    52    53    2
    19    52    56   am
    20    72    73    2
    21    72    74   am
    22    50    45   am
    23    56    57    1
    24    10     7    1
    25    57    60    1
    26     5     2    1
    27    60    61    1
    28    45    44    1
    29    45    46    2
    30     6     7    1
    31     6     3   am
    32     7     8    1
    33     9     8    2
    34    44    47    1
    35    44    43    1
    36    47    48    1
    37    47    49    1
    38     1     2    1
    39     2     3    1
    40    61    63   ar
    41    61    62   ar
    42     3     4    2
    43    63    65   ar
    44    42    41    2
    45    43    41   am
    46    62    64   ar
    47    41    40    1
    48    65    66   ar
    49    64    66   ar
    50    40    39    1
    51    30    29    2
    52    28    29    1
    53    28    27    1
    54    26    24    1
    55    29    31   am
    56    31    32    1
    57    24    23    2
    58    24    25    1
    59    17    16    1
    60    17    20    1
    61    17    18    1
    62    23    22    1
    63    32    33    1
    64    32    35    1
    65    36    38    1
    66    36    35    1
    67    19    18    2
    68    34    33    2
    69    20    21    1
    70    21    22    1
    71    35    37    1
