@<TRIPOS>MOLECULE
tmp/1h3nA00.pdb
 116 116 0 0 0
SMALL
GASTEIGER

@<TRIPOS>ATOM
      1  N         36.1530   41.1760   66.8500 N.3    40  MET40      -0.1230
      2  CA        35.7680   42.5620   66.5780 C.3    40  MET40       0.1702
      3  C         36.8630   43.5450   66.9910 C.2    40  MET40       0.2592
      4  O         37.1960   43.6410   68.1790 O.2    40  MET40      -0.2718
      5  CB        34.4810   42.9040   67.3220 C.3    40  MET40       0.0401
      6  CG        33.2360   42.2150   66.7680 C.3    40  MET40       0.0596
      7  SD        31.7490   42.7500   67.6310 S.3    40  MET40      -0.1393
      8  CE        30.5360   41.5440   66.9870 C.3    40  MET40       0.0692
      9  N         37.4210   44.2770   66.0250 N.am   41  PHE41      -0.1963
     10  CA        38.4840   45.2250   66.3580 C.3    41  PHE41       0.1756
     11  C         37.9540   46.3310   67.2630 C.2    41  PHE41       0.2461
     12  O         36.8180   46.7920   67.1170 O.2    41  PHE41      -0.2730
     13  CB        39.1960   45.7560   65.0850 C.3    41  PHE41       0.0574
     14  CG        38.3540   46.6370   64.1830 C.ar   41  PHE41      -0.0200
     15  CD1       36.9640   46.6270   64.2340 C.ar   41  PHE41      -0.0042
     16  CD2       38.9850   47.4620   63.2380 C.ar   41  PHE41      -0.0042
     17  CE1       36.2060   47.4210   63.3550 C.ar   41  PHE41      -0.0003
     18  CE2       38.2410   48.2590   62.3560 C.ar   41  PHE41      -0.0003
     19  CZ        36.8500   48.2370   62.4160 C.ar   41  PHE41      -0.0000
     20  N         38.7770   46.7620   68.2350 N.am   42  PRO42      -0.2716
     21  CA        38.4110   47.7970   69.1990 C.3    42  PRO42       0.1536
     22  C         38.4740   49.2590   68.7990 C.2    42  PRO42       0.2598
     23  O         39.1800   49.6470   67.8690 O.2    42  PRO42      -0.2715
     24  CB        39.3590   47.5110   70.3540 C.3    42  PRO42       0.0310
     25  CG        40.6450   47.2270   69.6020 C.3    42  PRO42       0.0237
     26  CD        40.1710   46.3200   68.4520 C.3    42  PRO42       0.0939
     27  N         37.7080   50.0600   69.5340 N.am   43  TYR43      -0.1974
     28  CA        37.7070   51.5040   69.3730 C.3    43  TYR43       0.1639
     29  C         38.9070   51.9120   70.2330 C.2    43  TYR43       0.2290
     30  O         38.9710   51.5480   71.4080 O.2    43  TYR43      -0.2864
     31  CB        36.4470   52.1220   69.9870 C.3    43  TYR43       0.0560
     32  CG        35.1750   51.8590   69.2220 C.ar   43  TYR43      -0.0198
     33  CD1       35.0640   52.2200   67.8800 C.ar   43  TYR43      -0.0009
     34  CD2       34.0720   51.2710   69.8410 C.ar   43  TYR43      -0.0009
     35  CE1       33.8920   52.0010   67.1710 C.ar   43  TYR43       0.0417
     36  CE2       32.8850   51.0500   69.1370 C.ar   43  TYR43       0.0417
     37  CZ        32.8080   51.4150   67.8040 C.ar   43  TYR43       0.1957
     38  OH        31.6630   51.1720   67.0870 O.3    43  TYR43      -0.2866
     39  N         39.5230   50.5730   64.9040 N.3    80  ASP80      -0.1239
     40  CA        38.2760   51.2400   64.5180 C.3    80  ASP80       0.1674
     41  C         38.5060   52.6310   65.0840 C.2    80  ASP80       0.2266
     42  O         37.8870   53.0250   66.0720 O.2    80  ASP80      -0.2867
     43  CB        37.1020   50.5550   65.2290 C.3    80  ASP80       0.1410
     44  CG        35.7840   50.7250   64.4910 C.2    80  ASP80       0.3668
     45  OD1       35.7330   51.5210   63.5290 O.co2  80  ASP80      -0.2456
     46  OD2       34.7980   50.0610   64.8810 O.co2  80  ASP80      -0.2456
     47  N         30.3490   53.5120   61.8750 N.3   501  PHE501     -0.1241
     48  CA        29.8920   52.2090   61.4180 C.3   501  PHE501      0.1605
     49  C         30.0590   51.9780   59.9230 C.2   501  PHE501      0.2264
     50  O         29.9070   50.8560   59.4470 O.2   501  PHE501     -0.2867
     51  CB        28.4510   51.9780   61.8630 C.3   501  PHE501      0.0534
     52  CG        28.3340   51.6390   63.3200 C.ar  501  PHE501     -0.0203
     53  CD1       28.7400   50.3940   63.7860 C.ar  501  PHE501     -0.0042
     54  CD2       27.8690   52.5800   64.2340 C.ar  501  PHE501     -0.0042
     55  CE1       28.6860   50.0850   65.1540 C.ar  501  PHE501     -0.0003
     56  CE2       27.8120   52.2850   65.5980 C.ar  501  PHE501     -0.0003
     57  CZ        28.2230   51.0330   66.0580 C.ar  501  PHE501     -0.0000
     58  N         33.5380   50.2510   59.7710 N.3   504  SER504     -0.1217
     59  CA        33.5120   48.8870   60.2800 C.3   504  SER504      0.1889
     60  C         32.6160   47.9150   59.5270 C.2   504  SER504      0.2288
     61  O         32.6040   46.7230   59.8310 O.2   504  SER504     -0.2866
     62  CB        33.1170   48.8970   61.7630 C.3   504  SER504      0.2089
     63  OG        31.8730   49.5460   61.9610 O.3   504  SER504     -0.2183
     64  N         35.6130   46.3380   57.1320 N.3   507  TYR507     -0.1241
     65  CA        37.0190   46.1840   57.5010 C.3   507  TYR507      0.1605
     66  C         37.5380   44.7530   57.3270 C.2   507  TYR507      0.2264
     67  O         38.6790   44.5520   56.9050 O.2   507  TYR507     -0.2867
     68  CB        37.2620   46.6650   58.9390 C.3   507  TYR507      0.0534
     69  CG        36.8430   45.7030   60.0320 C.ar  507  TYR507     -0.0201
     70  CD1       35.4990   45.4850   60.3290 C.ar  507  TYR507     -0.0009
     71  CD2       37.8060   45.0500   60.8100 C.ar  507  TYR507     -0.0009
     72  CE1       35.1200   44.6460   61.3820 C.ar  507  TYR507      0.0417
     73  CE2       37.4440   44.2150   61.8590 C.ar  507  TYR507      0.0417
     74  CZ        36.1050   44.0180   62.1450 C.ar  507  TYR507      0.1957
     75  OH        35.7610   43.2160   63.2060 O.3   507  TYR507     -0.2866
     76  N         33.5470   34.3870   63.8770 N.3   535  TYR535     -0.1241
     77  CA        33.5990   35.7820   64.2810 C.3   535  TYR535      0.1605
     78  C         33.2200   35.7950   65.7540 C.2   535  TYR535      0.2264
     79  O         32.2570   35.1330   66.1530 O.2   535  TYR535     -0.2867
     80  CB        32.5930   36.5940   63.4600 C.3   535  TYR535      0.0534
     81  CG        32.7340   38.1070   63.5610 C.ar  535  TYR535     -0.0201
     82  CD1       33.9540   38.7000   63.9020 C.ar  535  TYR535     -0.0009
     83  CD2       31.6700   38.9450   63.2180 C.ar  535  TYR535     -0.0009
     84  CE1       34.1110   40.0930   63.8890 C.ar  535  TYR535      0.0417
     85  CE2       31.8130   40.3300   63.1970 C.ar  535  TYR535      0.0417
     86  CZ        33.0340   40.8990   63.5280 C.ar  535  TYR535      0.1957
     87  OH        33.1810   42.2650   63.4540 O.3   535  TYR535     -0.2866
     88  N         26.0670   43.4610   71.8410 N.3   540  GLU540     -0.1231
     89  CA        25.6290   44.8510   71.7630 C.3   540  GLU540      0.1699
     90  C         25.5800   45.3340   70.3160 C.2   540  GLU540      0.2592
     91  O         24.9900   46.3750   70.0280 O.2   540  GLU540     -0.2718
     92  CB        26.5590   45.7690   72.5640 C.3   540  GLU540      0.0402
     93  CG        27.9970   45.7840   72.0640 C.3   540  GLU540      0.1161
     94  CD        28.8730   44.7560   72.7680 C.2   540  GLU540      0.3649
     95  OE1       28.3320   43.7640   73.3080 O.co2 540  GLU540     -0.2457
     96  OE2       30.1060   44.9400   72.7680 O.co2 540  GLU540     -0.2457
     97  N         26.1920   44.5780   69.4070 N.am  541  HIS541     -0.1976
     98  CA        26.2140   44.9510   67.9950 C.3   541  HIS541      0.1656
     99  C         25.1460   44.2590   67.1340 C.2   541  HIS541      0.2291
    100  O         25.1760   44.3680   65.9070 O.2   541  HIS541     -0.2864
    101  CB        27.6020   44.6700   67.4040 C.3   541  HIS541      0.0771
    102  CG        28.6540   45.6410   67.8470 C.ar  541  HIS541      0.0820
    103  ND1       28.6420   46.9710   67.4790 N.ar  541  HIS541     -0.2267
    104  CD2       29.7250   45.4850   68.6620 C.ar  541  HIS541      0.1154
    105  CE1       29.6610   47.5920   68.0510 C.ar  541  HIS541      0.1986
    106  NE2       30.3330   46.7130   68.7730 N.ar  541  HIS541     -0.2212
    107  N         26.5410   47.0400   64.0180 N.3   545  HIS545     -0.1241
    108  CA        27.5670   46.4580   63.1660 C.3   545  HIS545      0.1621
    109  C         27.1860   45.1330   62.5020 C.2   545  HIS545      0.2264
    110  O         27.4870   44.9220   61.3290 O.2   545  HIS545     -0.2867
    111  CB        28.8510   46.2650   63.9770 C.3   545  HIS545      0.0745
    112  CG        29.8750   45.4210   63.2880 C.ar  545  HIS545      0.0817
    113  ND1       30.4960   45.8080   62.1200 N.ar  545  HIS545     -0.2268
    114  CD2       30.3760   44.2020   63.5970 C.ar  545  HIS545      0.1154
    115  CE1       31.3390   44.8630   61.7400 C.ar  545  HIS545      0.1986
    116  NE2       31.2860   43.8780   62.6190 N.ar  545  HIS545     -0.2212
@<TRIPOS>BOND
     1    67    66    2
     2    64    65    1
     3    66    65    1
     4    65    68    1
     5    68    69    1
     6    50    49    2
     7    60    61    2
     8    60    59    1
     9    58    59    1
    10    49    48    1
    11    69    70   ar
    12    69    71   ar
    13    59    62    1
    14    70    72   ar
    15    71    73   ar
    16   110   109    2
    17    72    74   ar
    18    48    51    1
    19    48    47    1
    20   115   113   ar
    21   115   116   ar
    22    62    63    1
    23    73    74   ar
    24    51    52    1
    25   113   112   ar
    26    74    75    1
    27    18    19   ar
    28    18    16   ar
    29    19    17   ar
    30   109   108    1
    31   116   114   ar
    32   108   111    1
    33   108   107    1
    34    85    83   ar
    35    85    86   ar
    36    83    81   ar
    37    16    14   ar
    38   112   114   ar
    39   112   111    1
    40    52    53   ar
    41    52    54   ar
    42    17    15   ar
    43    87    86    1
    44    80    81    1
    45    80    77    1
    46    86    84   ar
    47    45    44   ar
    48    81    82   ar
    49    53    55   ar
    50    76    77    1
    51    84    82   ar
    52    14    15   ar
    53    14    13    1
    54    54    56   ar
    55    77    78    1
    56    44    46   ar
    57    44    43    1
    58    40    39    1
    59    40    41    1
    60    40    43    1
    61    41    42    2
    62    13    10    1
    63    55    57   ar
    64    56    57   ar
    65    78    79    2
    66   100    99    2
    67     9    10    1
    68     9     3   am
    69    10    11    1
    70     2     1    1
    71     2     3    1
    72     2     5    1
    73     6     5    1
    74     6     7    1
    75     8     7    1
    76     3     4    2
    77    38    37    1
    78    12    11    2
    79    99    98    1
    80    35    37   ar
    81    35    33   ar
    82    11    20   am
    83   101   102    1
    84   101    98    1
    85   103   102   ar
    86   103   105   ar
    87    37    36   ar
    88   102   104   ar
    89    23    22    2
    90    33    32   ar
    91    98    97    1
    92   105   106   ar
    93    20    26    1
    94    20    21    1
    95    26    25    1
    96   104   106   ar
    97    22    21    1
    98    22    27   am
    99    36    34   ar
   100    21    24    1
   101    32    34   ar
   102    32    31    1
   103    28    27    1
   104    28    31    1
   105    28    29    1
   106    97    90   am
   107    25    24    1
   108    91    90    2
   109    29    30    2
   110    90    89    1
   111    89    88    1
   112    89    92    1
   113    93    92    1
   114    93    94    1
   115    96    94   ar
   116    94    95   ar
