@<TRIPOS>MOLECULE
tmp/1h3nA01.pdb
 188 185 0 0 0
SMALL
GASTEIGER

@<TRIPOS>ATOM
      1  N         36.1530   41.1760   66.8500 N.3    40  MET40      -0.1230
      2  CA        35.7680   42.5620   66.5780 C.3    40  MET40       0.1702
      3  C         36.8630   43.5450   66.9910 C.2    40  MET40       0.2592
      4  O         37.1960   43.6410   68.1790 O.2    40  MET40      -0.2718
      5  CB        34.4810   42.9040   67.3220 C.3    40  MET40       0.0401
      6  CG        33.2360   42.2150   66.7680 C.3    40  MET40       0.0596
      7  SD        31.7490   42.7500   67.6310 S.3    40  MET40      -0.1393
      8  CE        30.5360   41.5440   66.9870 C.3    40  MET40       0.0692
      9  N         37.4210   44.2770   66.0250 N.am   41  PHE41      -0.1963
     10  CA        38.4840   45.2250   66.3580 C.3    41  PHE41       0.1756
     11  C         37.9540   46.3310   67.2630 C.2    41  PHE41       0.2461
     12  O         36.8180   46.7920   67.1170 O.2    41  PHE41      -0.2730
     13  CB        39.1960   45.7560   65.0850 C.3    41  PHE41       0.0574
     14  CG        38.3540   46.6370   64.1830 C.ar   41  PHE41      -0.0200
     15  CD1       36.9640   46.6270   64.2340 C.ar   41  PHE41      -0.0042
     16  CD2       38.9850   47.4620   63.2380 C.ar   41  PHE41      -0.0042
     17  CE1       36.2060   47.4210   63.3550 C.ar   41  PHE41      -0.0003
     18  CE2       38.2410   48.2590   62.3560 C.ar   41  PHE41      -0.0003
     19  CZ        36.8500   48.2370   62.4160 C.ar   41  PHE41      -0.0000
     20  N         38.7770   46.7620   68.2350 N.am   42  PRO42      -0.2716
     21  CA        38.4110   47.7970   69.1990 C.3    42  PRO42       0.1536
     22  C         38.4740   49.2590   68.7990 C.2    42  PRO42       0.2598
     23  O         39.1800   49.6470   67.8690 O.2    42  PRO42      -0.2715
     24  CB        39.3590   47.5110   70.3540 C.3    42  PRO42       0.0310
     25  CG        40.6450   47.2270   69.6020 C.3    42  PRO42       0.0237
     26  CD        40.1710   46.3200   68.4520 C.3    42  PRO42       0.0939
     27  N         37.7080   50.0600   69.5340 N.am   43  TYR43      -0.1974
     28  CA        37.7070   51.5040   69.3730 C.3    43  TYR43       0.1639
     29  C         38.9070   51.9120   70.2330 C.2    43  TYR43       0.2290
     30  O         38.9710   51.5480   71.4080 O.2    43  TYR43      -0.2864
     31  CB        36.4470   52.1220   69.9870 C.3    43  TYR43       0.0560
     32  CG        35.1750   51.8590   69.2220 C.ar   43  TYR43      -0.0198
     33  CD1       35.0640   52.2200   67.8800 C.ar   43  TYR43      -0.0009
     34  CD2       34.0720   51.2710   69.8410 C.ar   43  TYR43      -0.0009
     35  CE1       33.8920   52.0010   67.1710 C.ar   43  TYR43       0.0417
     36  CE2       32.8850   51.0500   69.1370 C.ar   43  TYR43       0.0417
     37  CZ        32.8080   51.4150   67.8040 C.ar   43  TYR43       0.1957
     38  OH        31.6630   51.1720   67.0870 O.3    43  TYR43      -0.2866
     39  N         42.8830   48.8410   77.2000 N.3    48  LEU48      -0.1231
     40  CA        42.2010   47.5570   77.0980 C.3    48  LEU48       0.1693
     41  C         42.2650   46.8920   78.4680 C.2    48  LEU48       0.2592
     42  O         43.2410   47.0620   79.2000 O.2    48  LEU48      -0.2718
     43  CB        42.8810   46.6540   76.0670 C.3    48  LEU48       0.0284
     44  CG        42.8180   47.0900   74.6020 C.3    48  LEU48       0.0019
     45  CD1       43.4270   45.9980   73.7250 C.3    48  LEU48       0.0001
     46  CD2       41.3740   47.3430   74.2060 C.3    48  LEU48       0.0001
     47  N         41.2250   46.1470   78.8220 N.am   49  HIS49      -0.1976
     48  CA        41.2000   45.4580   80.1080 C.3    49  HIS49       0.1656
     49  C         40.9030   43.9810   79.8810 C.2    49  HIS49       0.2291
     50  O         40.7530   43.5490   78.7350 O.2    49  HIS49      -0.2864
     51  CB        40.1610   46.0980   81.0460 C.3    49  HIS49       0.0771
     52  CG        38.8100   46.2780   80.4280 C.ar   49  HIS49       0.0820
     53  ND1       38.0670   45.2090   79.9930 N.ar   49  HIS49      -0.2267
     54  CD2       38.1210   47.4260   80.1920 C.ar   49  HIS49       0.1154
     55  CE1       36.9530   45.7190   79.5040 C.ar   49  HIS49       0.1986
     56  NE2       36.9380   47.0580   79.6020 N.ar   49  HIS49      -0.2212
     57  N         38.3680   42.4290   80.0140 N.3    51  GLY51      -0.1210
     58  CA        37.1140   42.2150   79.3110 C.3    51  GLY51       0.1956
     59  C         37.4330   42.0690   77.8330 C.2    51  GLY51       0.2611
     60  O         37.0150   41.1060   77.1850 O.2    51  GLY51      -0.2717
     61  N         38.1820   43.0290   77.2950 N.am   52  HIS52      -0.1975
     62  CA        38.5880   42.9760   75.8950 C.3    52  HIS52       0.1656
     63  C         39.4120   41.7200   75.6640 C.2    52  HIS52       0.2291
     64  O         39.2330   41.0140   74.6730 O.2    52  HIS52      -0.2864
     65  CB        39.4480   44.1890   75.5230 C.3    52  HIS52       0.0771
     66  CG        38.7700   45.5020   75.7400 C.ar   52  HIS52       0.0820
     67  ND1       39.0700   46.3010   76.8160 N.ar   52  HIS52      -0.2267
     68  CD2       37.7980   46.0950   75.0010 C.ar   52  HIS52       0.1154
     69  CE1       38.2810   47.3540   76.7150 C.ar   52  HIS52       0.1986
     70  NE2       37.4920   47.2750   75.6310 N.ar   52  HIS52      -0.2212
     71  N         39.2640   38.8660   77.0480 N.3    54  LYS54      -0.1231
     72  CA        38.5440   37.5880   76.9960 C.3    54  LYS54       0.1693
     73  C         38.2070   37.3650   75.5160 C.2    54  LYS54       0.2592
     74  O         38.4580   36.2930   74.9510 O.2    54  LYS54      -0.2718
     75  CB        37.2460   37.6250   77.8070 C.3    54  LYS54       0.0285
     76  CG        36.3660   36.3910   77.5620 C.3    54  LYS54       0.0035
     77  CD        35.0090   36.4740   78.2630 C.3    54  LYS54       0.0206
     78  CE        34.1420   35.2530   77.9140 C.3    54  LYS54       0.1093
     79  NZ        32.8380   35.2490   78.6290 N.3    54  LYS54      -0.1314
     80  N         37.6570   38.4030   74.8930 N.am   55  ASN55      -0.1960
     81  CA        37.2840   38.3600   73.4770 C.3    55  ASN55       0.1819
     82  C         38.4960   38.0350   72.6000 C.2    55  ASN55       0.2621
     83  O         38.4290   37.1720   71.7270 O.2    55  ASN55      -0.2715
     84  CB        36.6920   39.7240   73.0680 C.3    55  ASN55       0.1195
     85  CG        36.0590   39.7200   71.6710 C.2    55  ASN55       0.2630
     86  OD1       35.3670   40.6720   71.3040 O.2    55  ASN55      -0.2716
     87  ND2       36.2940   38.6650   70.8920 N.am   55  ASN55      -0.0877
     88  N         39.6170   38.7050   72.8510 N.am   56  TYR56      -0.1974
     89  CA        40.8010   38.4960   72.0280 C.3    56  TYR56       0.1639
     90  C         41.6000   37.2390   72.3530 C.2    56  TYR56       0.2290
     91  O         42.2450   36.6690   71.4740 O.2    56  TYR56      -0.2864
     92  CB        41.6700   39.7630   72.0520 C.3    56  TYR56       0.0560
     93  CG        40.8840   40.9910   71.6150 C.ar   56  TYR56      -0.0198
     94  CD1       39.8700   40.8810   70.6540 C.ar   56  TYR56      -0.0009
     95  CD2       41.1380   42.2500   72.1590 C.ar   56  TYR56      -0.0009
     96  CE1       39.1260   41.9910   70.2480 C.ar   56  TYR56       0.0417
     97  CE2       40.3980   43.3730   71.7590 C.ar   56  TYR56       0.0417
     98  CZ        39.3940   43.2300   70.8000 C.ar   56  TYR56       0.1957
     99  OH        38.6640   44.3160   70.3810 O.3    56  TYR56      -0.2866
    100  N         39.5230   50.5730   64.9040 N.3    80  ASP80      -0.1239
    101  CA        38.2760   51.2400   64.5180 C.3    80  ASP80       0.1674
    102  C         38.5060   52.6310   65.0840 C.2    80  ASP80       0.2266
    103  O         37.8870   53.0250   66.0720 O.2    80  ASP80      -0.2867
    104  CB        37.1020   50.5550   65.2290 C.3    80  ASP80       0.1410
    105  CG        35.7840   50.7250   64.4910 C.2    80  ASP80       0.3668
    106  OD1       35.7330   51.5210   63.5290 O.co2  80  ASP80      -0.2456
    107  OD2       34.7980   50.0610   64.8810 O.co2  80  ASP80      -0.2456
    108  N         26.2720   56.1390   73.1430 N.3   178  ARG178     -0.1245
    109  CA        27.5150   56.5240   73.8060 C.3   178  ARG178      0.1563
    110  C         27.2300   57.1960   75.1430 C.2   178  ARG178      0.2260
    111  O         27.9770   57.0340   76.1100 O.2   178  ARG178     -0.2867
    112  CB        28.3230   57.4820   72.9230 C.3   178  ARG178      0.0307
    113  CG        28.7280   56.9120   71.5700 C.3   178  ARG178      0.0489
    114  CD        29.4630   55.5780   71.7080 C.3   178  ARG178      0.2205
    115  NE        30.7280   55.6910   72.4320 N.pl3 178  ARG178     -0.0865
    116  CZ        31.5390   54.6640   72.6780 C.cat 178  ARG178      0.5346
    117  NH1       31.2190   53.4440   72.2600 N.pl3 178  ARG178      0.1354
    118  NH2       32.6730   54.8520   73.3400 N.pl3 178  ARG178      0.1354
    119  N         32.4940   38.4180   69.0600 N.3   537  GLY537     -0.1210
    120  CA        32.2730   39.7910   69.4940 C.3   537  GLY537      0.1956
    121  C         30.9930   39.9550   70.2940 C.2   537  GLY537      0.2612
    122  O         30.1430   39.0590   70.3010 O.2   537  GLY537     -0.2717
    123  N         30.8470   41.1070   70.9480 N.am  538  GLY538     -0.1956
    124  CA        29.6840   41.3770   71.7840 C.3   538  GLY538      0.1869
    125  C         28.3150   41.4920   71.1270 C.2   538  GLY538      0.2309
    126  O         28.1800   41.9940   70.0100 O.2   538  GLY538     -0.2863
    127  N         26.0670   43.4610   71.8410 N.3   540  GLU540     -0.1231
    128  CA        25.6290   44.8510   71.7630 C.3   540  GLU540      0.1699
    129  C         25.5800   45.3340   70.3160 C.2   540  GLU540      0.2592
    130  O         24.9900   46.3750   70.0280 O.2   540  GLU540     -0.2718
    131  CB        26.5590   45.7690   72.5640 C.3   540  GLU540      0.0402
    132  CG        27.9970   45.7840   72.0640 C.3   540  GLU540      0.1161
    133  CD        28.8730   44.7560   72.7680 C.2   540  GLU540      0.3649
    134  OE1       28.3320   43.7640   73.3080 O.co2 540  GLU540     -0.2457
    135  OE2       30.1060   44.9400   72.7680 O.co2 540  GLU540     -0.2457
    136  N         26.1920   44.5780   69.4070 N.am  541  HIS541     -0.1976
    137  CA        26.2140   44.9510   67.9950 C.3   541  HIS541      0.1656
    138  C         25.1460   44.2590   67.1340 C.2   541  HIS541      0.2291
    139  O         25.1760   44.3680   65.9070 O.2   541  HIS541     -0.2864
    140  CB        27.6020   44.6700   67.4040 C.3   541  HIS541      0.0771
    141  CG        28.6540   45.6410   67.8470 C.ar  541  HIS541      0.0820
    142  ND1       28.6420   46.9710   67.4790 N.ar  541  HIS541     -0.2267
    143  CD2       29.7250   45.4850   68.6620 C.ar  541  HIS541      0.1154
    144  CE1       29.6610   47.5920   68.0510 C.ar  541  HIS541      0.1986
    145  NE2       30.3330   46.7130   68.7730 N.ar  541  HIS541     -0.2212
    146  N         30.4360   36.5020   72.9190 N.3   574  GLN574     -0.1231
    147  CA        31.0000   36.1570   74.2180 C.3   574  GLN574      0.1698
    148  C         30.3420   36.9350   75.3510 C.2   574  GLN574      0.2593
    149  O         29.9640   38.0960   75.1840 O.2   574  GLN574     -0.2718
    150  CB        32.5190   36.3870   74.2100 C.3   574  GLN574      0.0381
    151  CG        33.0110   37.8150   74.4860 C.3   574  GLN574      0.0905
    152  CD        32.6300   38.8270   73.4140 C.2   574  GLN574      0.2608
    153  OE1       32.2560   38.4660   72.3010 O.2   574  GLN574     -0.2717
    154  NE2       32.7450   40.1100   73.7490 N.am  574  GLN574     -0.0878
    155  N         30.1840   36.2790   76.4960 N.am  575  GLY575     -0.1942
    156  CA        29.5850   36.9310   77.6460 C.3   575  GLY575      0.2014
    157  C         30.5410   37.9930   78.1510 C.2   575  GLY575      0.2639
    158  O         31.7330   37.9270   77.8700 O.2   575  GLY575     -0.2714
    159  N         30.0300   38.9680   78.8950 N.am  576  MET576     -0.1963
    160  CA        30.8700   40.0390   79.4180 C.3   576  MET576      0.1736
    161  C         31.6630   39.5990   80.6400 C.2   576  MET576      0.2616
    162  O         31.2300   38.7300   81.3990 O.2   576  MET576     -0.2715
    163  CB        30.0160   41.2520   79.8170 C.3   576  MET576      0.0427
    164  CG        29.3310   41.9710   78.6560 C.3   576  MET576      0.0599
    165  SD        30.5220   42.7260   77.5220 S.3   576  MET576     -0.1393
    166  CE        30.4760   41.5480   76.1780 C.3   576  MET576      0.0692
    167  N         32.8290   40.2060   80.8210 N.am  577  VAL577     -0.1977
    168  CA        33.6490   39.9260   81.9860 C.3   577  VAL577      0.1596
    169  C         33.2150   40.9680   83.0100 C.2   577  VAL577      0.2287
    170  O         33.1650   42.1610   82.7020 O.2   577  VAL577     -0.2864
    171  CB        35.1530   40.1040   81.6890 C.3   577  VAL577      0.0276
    172  CG1       35.9470   40.0180   82.9880 C.3   577  VAL577      0.0022
    173  CG2       35.6300   39.0160   80.7160 C.3   577  VAL577      0.0022
    174  N         29.8030   44.9590   84.9180 N.3   637  VAL637     -0.1231
    175  CA        30.5580   44.8040   83.6800 C.3   637  VAL637      0.1692
    176  C         31.8550   45.5940   83.7510 C.2   637  VAL637      0.2591
    177  O         31.8630   46.7760   84.0940 O.2   637  VAL637     -0.2718
    178  CB        29.7560   45.2820   82.4440 C.3   637  VAL637      0.0266
    179  CG1       30.6250   45.1830   81.1980 C.3   637  VAL637      0.0020
    180  CG2       28.5040   44.4240   82.2660 C.3   637  VAL637      0.0020
    181  N         32.9550   44.9270   83.4240 N.am  638  MET638     -0.1979
    182  CA        34.2630   45.5630   83.4560 C.3   638  MET638      0.1605
    183  C         34.3290   46.6410   82.3850 C.2   638  MET638      0.2287
    184  O         34.1550   46.3640   81.2010 O.2   638  MET638     -0.2864
    185  CB        35.3650   44.5210   83.2270 C.3   638  MET638      0.0413
    186  CG        36.7400   44.9550   83.6990 C.3   638  MET638      0.0598
    187  SD        37.9650   43.6320   83.5660 S.3   638  MET638     -0.1393
    188  CE        37.7390   42.7910   85.1530 C.3   638  MET638      0.0692
@<TRIPOS>BOND
     1    18    19   ar
     2    18    16   ar
     3    19    17   ar
     4    16    14   ar
     5    17    15   ar
     6   106   105   ar
     7    14    15   ar
     8    14    13    1
     9   105   107   ar
    10   105   104    1
    11   101   100    1
    12   101   102    1
    13   101   104    1
    14   102   103    2
    15    13    10    1
    16   139   138    2
    17     9    10    1
    18     9     3   am
    19    10    11    1
    20     2     1    1
    21     2     3    1
    22     2     5    1
    23     6     5    1
    24     6     7    1
    25     8     7    1
    26     3     4    2
    27    38    37    1
    28    12    11    2
    29   138   137    1
    30    35    37   ar
    31    35    33   ar
    32    11    20   am
    33   140   141    1
    34   140   137    1
    35   142   141   ar
    36   142   144   ar
    37    37    36   ar
    38   141   143   ar
    39    23    22    2
    40    33    32   ar
    41   137   136    1
    42   144   145   ar
    43    20    26    1
    44    20    21    1
    45    26    25    1
    46   143   145   ar
    47    22    21    1
    48    22    27   am
    49   119   120    1
    50    36    34   ar
    51    21    24    1
    52    32    34   ar
    53    32    31    1
    54    28    27    1
    55    28    31    1
    56    28    29    1
    57   136   129   am
    58   120   121    1
    59    25    24    1
    60   126   125    2
    61   130   129    2
    62    29    30    2
    63    96    94   ar
    64    96    98   ar
    65   121   122    2
    66   121   123   am
    67   129   128    1
    68    99    98    1
    69    94    93   ar
    70    98    97   ar
    71    87    85   am
    72   123   124    1
    73   125   124    1
    74    86    85    2
    75    91    90    2
    76   113   114    1
    77   113   112    1
    78    93    92    1
    79    93    95   ar
    80    85    84    1
    81   114   115    1
    82    83    82    2
    83    97    95   ar
    84   128   127    1
    85   128   131    1
    86    89    92    1
    87    89    90    1
    88    89    88    1
    89   132   131    1
    90   132   133    1
    91   117   116    1
    92   153   152    2
    93   115   116    2
    94    82    88   am
    95    82    81    1
    96   116   118    1
    97   135   133   ar
    98   133   134   ar
    99   146   147    1
   100   112   109    1
   101    84    81    1
   102   108   109    1
   103   152   154   am
   104   152   151    1
   105    81    80    1
   106    45    44    1
   107   109   110    1
   108    46    44    1
   109   150   147    1
   110   150   151    1
   111   147   148    1
   112    44    43    1
   113    64    63    2
   114    80    73   am
   115    74    73    2
   116    68    70   ar
   117    68    66   ar
   118   110   111    2
   119   149   148    2
   120   148   155   am
   121    73    72    1
   122    65    66    1
   123    65    62    1
   124    70    69   ar
   125    63    62    1
   126    66    67   ar
   127    62    61    1
   128    43    40    1
   129   166   165    1
   130   155   156    1
   131    69    67   ar
   132    72    71    1
   133    72    75    1
   134    40    39    1
   135    40    41    1
   136    60    59    2
   137    61    59   am
   138   165   164    1
   139    76    75    1
   140    76    77    1
   141   156   157    1
   142    59    58    1
   143   158   157    2
   144    78    77    1
   145    78    79    1
   146   157   159   am
   147    41    47   am
   148    41    42    2
   149   164   163    1
   150    50    49    2
   151    47    48    1
   152   159   160    1
   153    58    57    1
   154   160   163    1
   155   160   161    1
   156    55    56   ar
   157    55    53   ar
   158    56    54   ar
   159    49    48    1
   160    53    52   ar
   161    48    51    1
   162    54    52   ar
   163    52    51    1
   164   161   167   am
   165   161   162    2
   166   173   171    1
   167   167   168    1
   168   179   178    1
   169   184   183    2
   170   171   168    1
   171   171   172    1
   172   168   169    1
   173   180   178    1
   174   183   182    1
   175   178   175    1
   176   170   169    2
   177   185   182    1
   178   185   186    1
   179   181   182    1
   180   181   176   am
   181   187   186    1
   182   187   188    1
   183   175   176    1
   184   175   174    1
   185   176   177    2
