@<TRIPOS>MOLECULE
tmp/1h3tA00.pdb
 87 84 0 0 0
SMALL
GASTEIGER

@<TRIPOS>ATOM
      1  N          8.4720    9.3390   66.5100 N.3     2  SER2       -0.1217
      2  CA         8.7220    8.5220   65.3240 C.3     2  SER2        0.1889
      3  C          9.5570    9.2940   64.3230 C.2     2  SER2        0.2288
      4  O          9.4180   10.5100   64.2110 O.2     2  SER2       -0.2866
      5  CB         7.4020    8.1160   64.6570 C.3     2  SER2        0.2089
      6  OG         6.7700    7.0580   65.3530 O.3     2  SER2       -0.2183
      7  N         10.9370    9.3840   60.2000 N.3     4  PHE4       -0.1241
      8  CA        10.7320    8.8790   58.8440 C.3     4  PHE4        0.1605
      9  C         11.7470    9.5510   57.9340 C.2     4  PHE4        0.2264
     10  O         11.9140   10.7700   57.9790 O.2     4  PHE4       -0.2867
     11  CB         9.3000    9.1670   58.3400 C.3     4  PHE4        0.0534
     12  CG         8.2120    8.5590   59.2000 C.ar    4  PHE4       -0.0203
     13  CD1        7.5940    9.3100   60.2050 C.ar    4  PHE4       -0.0042
     14  CD2        7.8590    7.2140   59.0560 C.ar    4  PHE4       -0.0042
     15  CE1        6.6410    8.7280   61.0640 C.ar    4  PHE4       -0.0003
     16  CE2        6.9140    6.6220   59.9050 C.ar    4  PHE4       -0.0003
     17  CZ         6.3030    7.3800   60.9140 C.ar    4  PHE4       -0.0000
     18  N         12.8160   10.3300   54.0890 N.3     6  PHE6       -0.1241
     19  CA        12.3450   10.4120   52.7110 C.3     6  PHE6        0.1605
     20  C         13.4990   10.7030   51.7450 C.2     6  PHE6        0.2264
     21  O         14.3320   11.5700   51.9950 O.2     6  PHE6       -0.2867
     22  CB        11.2990   11.5180   52.5720 C.3     6  PHE6        0.0534
     23  CG        10.0880   11.3020   53.4160 C.ar    6  PHE6       -0.0203
     24  CD1        9.0220   10.5370   52.9380 C.ar    6  PHE6       -0.0042
     25  CD2       10.0570   11.7670   54.7320 C.ar    6  PHE6       -0.0042
     26  CE1        7.9460   10.2290   53.7660 C.ar    6  PHE6       -0.0003
     27  CE2        8.9850   11.4640   55.5720 C.ar    6  PHE6       -0.0003
     28  CZ         7.9290   10.6930   55.0950 C.ar    6  PHE6       -0.0000
     29  N          7.9460   12.7790   64.3440 N.3    27  VAL27      -0.1231
     30  CA         6.6250   13.0860   64.8440 C.3    27  VAL27       0.1692
     31  C          6.5360   12.5360   66.2540 C.2    27  VAL27       0.2592
     32  O          7.3350   11.6760   66.6480 O.2    27  VAL27      -0.2718
     33  CB         5.5100   12.4470   63.9960 C.3    27  VAL27       0.0266
     34  CG1        5.5980   12.9360   62.5700 C.3    27  VAL27       0.0020
     35  CG2        5.5980   10.9330   64.0590 C.3    27  VAL27       0.0020
     36  N          5.5620   13.0410   67.0050 N.am   28  ASP28      -0.1974
     37  CA         5.3260   12.6180   68.3790 C.3    28  ASP28       0.1709
     38  C          6.4400   13.0650   69.2980 C.2    28  ASP28       0.2293
     39  O          6.8820   12.3230   70.1780 O.2    28  ASP28      -0.2864
     40  CB         5.1430   11.0930   68.4770 C.3    28  ASP28       0.1436
     41  CG         3.7800   10.6230   67.9490 C.2    28  ASP28       0.3671
     42  OD1        3.4580    9.4210   68.0820 O.co2  28  ASP28      -0.2456
     43  OD2        3.0230   11.4540   67.4030 O.co2  28  ASP28      -0.2456
     44  N          1.4830   20.5870   67.1720 N.3    59  TYR59      -0.1227
     45  CA         0.2270   19.9930   66.7150 C.3    59  TYR59       0.1736
     46  C         -0.7690   19.6260   67.8250 C.2    59  TYR59       0.2595
     47  O         -0.8660   20.3110   68.8450 O.2    59  TYR59      -0.2718
     48  CB         0.4770   18.6820   65.9010 C.3    59  TYR59       0.0548
     49  CG         0.8600   19.1550   64.4960 C.ar   59  TYR59      -0.0200
     50  CD1       -0.0550   19.6450   63.5840 C.ar   59  TYR59      -0.0009
     51  CD2        2.2140   19.1850   64.1550 C.ar   59  TYR59      -0.0009
     52  CE1        0.3580   20.1130   62.3500 C.ar   59  TYR59       0.0417
     53  CE2        2.6280   19.6690   62.9380 C.ar   59  TYR59       0.0417
     54  CZ         1.6980   20.1270   62.0330 C.ar   59  TYR59       0.1957
     55  OH         2.1350   20.5860   60.8100 O.3    59  TYR59      -0.2866
     56  N         -1.5110   18.5410   67.6030 N.am   60  ASN60      -0.1960
     57  CA        -2.5110   18.0400   68.5510 C.3    60  ASN60       0.1819
     58  C         -2.1090   18.1330   70.0150 C.2    60  ASN60       0.2622
     59  O         -2.7930   18.7730   70.8080 O.2    60  ASN60      -0.2715
     60  CB        -2.8820   16.5700   68.2410 C.3    60  ASN60       0.1195
     61  CG        -1.6590   15.6450   68.1050 C.2    60  ASN60       0.2630
     62  OD1       -0.5660   15.9520   68.5710 O.2    60  ASN60      -0.2716
     63  ND2       -1.8490   14.4990   67.4580 N.am   60  ASN60      -0.0877
     64  N         -0.9980   17.4820   70.3580 N.am   61  SER61      -0.1936
     65  CA        -0.4610   17.4370   71.7190 C.3    61  SER61       0.2055
     66  C          1.0100   17.0060   71.6440 C.2    61  SER61       0.2643
     67  O          1.5780   16.4880   72.6120 O.2    61  SER61      -0.2714
     68  CB        -1.2390   16.4130   72.5300 C.3    61  SER61       0.2130
     69  OG        -1.2380   15.1660   71.8490 O.3    61  SER61      -0.2179
     70  N          1.6130   17.2110   70.4760 N.am   62  THR62      -0.1950
     71  CA         3.0030   16.8410   70.2480 C.3    62  THR62       0.1897
     72  C          3.6800   17.8410   69.3250 C.2    62  THR62       0.2313
     73  O          3.0720   18.8170   68.8820 O.2    62  THR62      -0.2863
     74  CB         3.1080   15.4620   69.5920 C.3    62  THR62       0.1794
     75  OG1        2.3520   15.4650   68.3750 O.3    62  THR62      -0.2208
     76  CG2        2.5740   14.3840   70.5160 C.3    62  THR62       0.0378
     77  N          6.2570   18.3280   65.8340 N.3    64  ARG64      -0.1245
     78  CA         6.7550   17.7460   64.6060 C.3    64  ARG64       0.1563
     79  C          7.9610   18.5880   64.2050 C.2    64  ARG64       0.2260
     80  O          7.8830   19.8100   64.1810 O.2    64  ARG64      -0.2867
     81  CB         5.6710   17.8130   63.5270 C.3    64  ARG64       0.0307
     82  CG         6.0720   17.2440   62.1630 C.3    64  ARG64       0.0489
     83  CD         4.8360   16.9380   61.3090 C.3    64  ARG64       0.2205
     84  NE         5.1860   16.3610   60.0120 N.pl3  64  ARG64      -0.0865
     85  CZ         5.5910   17.0700   58.9640 C.cat  64  ARG64       0.5346
     86  NH1        5.6890   18.3900   59.0540 N.pl3  64  ARG64       0.1354
     87  NH2        5.9200   16.4620   57.8290 N.pl3  64  ARG64       0.1354
@<TRIPOS>BOND
     1    20    21    2
     2    20    19    1
     3    22    19    1
     4    22    23    1
     5    19    18    1
     6    24    23   ar
     7    24    26   ar
     8    23    25   ar
     9    26    28   ar
    10    25    27   ar
    11    28    27   ar
    12    87    85    1
    13     9    10    2
    14     9     8    1
    15    11     8    1
    16    11    12    1
    17     8     7    1
    18    85    86    1
    19    85    84    2
    20    14    12   ar
    21    14    16   ar
    22    12    13   ar
    23    16    17   ar
    24    84    83    1
    25    13    15   ar
    26    55    54    1
    27    17    15   ar
    28    83    82    1
    29    54    52   ar
    30    54    53   ar
    31    82    81    1
    32    52    50   ar
    33    34    33    1
    34    53    51   ar
    35    81    78    1
    36    50    49   ar
    37    33    35    1
    38    33    30    1
    39    51    49   ar
    40    80    79    2
    41    79    78    1
    42     4     3    2
    43     3     2    1
    44    29    30    1
    45    49    48    1
    46    78    77    1
    47     5     2    1
    48     5     6    1
    49    30    31    1
    50     2     1    1
    51    48    45    1
    52    31    32    2
    53    31    36   am
    54    45    44    1
    55    45    46    1
    56    36    37    1
    57    43    41   ar
    58    63    61   am
    59    56    46   am
    60    56    57    1
    61    46    47    2
    62    41    42   ar
    63    41    40    1
    64    61    60    1
    65    61    62    2
    66    60    57    1
    67    75    74    1
    68    37    40    1
    69    37    38    1
    70    57    58    1
    71    73    72    2
    72    38    39    2
    73    72    71    1
    74    74    71    1
    75    74    76    1
    76    58    64   am
    77    58    59    2
    78    71    70    1
    79    64    65    1
    80    70    66   am
    81    66    65    1
    82    66    67    2
    83    65    68    1
    84    69    68    1
