@<TRIPOS>MOLECULE
tmp/1h3uA00.pdb
 94 90 0 0 0
SMALL
GASTEIGER

@<TRIPOS>ATOM
      1  N          8.7310    8.9760   68.2230 N.3     2  SER2       -0.1217
      2  CA         8.9540    8.2820   66.9600 C.3     2  SER2        0.1889
      3  C          9.6380    9.1970   65.9490 C.2     2  SER2        0.2288
      4  O          9.2710   10.3640   65.8180 O.2     2  SER2       -0.2866
      5  CB         7.6240    7.7970   66.3840 C.3     2  SER2        0.2089
      6  OG         7.1050    6.7180   67.1320 O.3     2  SER2       -0.2183
      7  N         10.8710    9.8480   61.8860 N.3     4  PHE4       -0.1241
      8  CA        10.6270    9.4880   60.4950 C.3     4  PHE4        0.1605
      9  C         11.6130   10.2410   59.6060 C.2     4  PHE4        0.2264
     10  O         11.7470   11.4610   59.7160 O.2     4  PHE4       -0.2867
     11  CB         9.1870    9.8190   60.0890 C.3     4  PHE4        0.0534
     12  CG         8.1560    9.1280   60.9280 C.ar    4  PHE4       -0.0203
     13  CD1        7.6680    9.7250   62.0860 C.ar    4  PHE4       -0.0042
     14  CD2        7.7150    7.8530   60.5960 C.ar    4  PHE4       -0.0042
     15  CE1        6.7530    9.0600   62.9080 C.ar    4  PHE4       -0.0003
     16  CE2        6.8030    7.1810   61.4080 C.ar    4  PHE4       -0.0003
     17  CZ         6.3230    7.7910   62.5680 C.ar    4  PHE4       -0.0000
     18  N         12.6870   11.2070   55.7450 N.3     6  PHE6       -0.1241
     19  CA        12.1770   11.3200   54.3810 C.3     6  PHE6        0.1605
     20  C         13.2580   11.6460   53.3650 C.2     6  PHE6        0.2264
     21  O         14.1050   12.5050   53.5950 O.2     6  PHE6       -0.2867
     22  CB        11.0980   12.4010   54.3120 C.3     6  PHE6        0.0534
     23  CG         9.9330   12.1300   55.1920 C.ar    6  PHE6       -0.0203
     24  CD1        8.8950   11.3100   54.7580 C.ar    6  PHE6       -0.0042
     25  CD2        9.8900   12.6520   56.4810 C.ar    6  PHE6       -0.0042
     26  CE1        7.8290   11.0090   55.5990 C.ar    6  PHE6       -0.0003
     27  CE2        8.8330   12.3580   57.3280 C.ar    6  PHE6       -0.0003
     28  CZ         7.7960   11.5340   56.8890 C.ar    6  PHE6       -0.0000
     29  N         11.9550   14.0870   60.8450 N.3    25  VAL25      -0.1245
     30  CA        10.8560   14.5160   61.6780 C.3    25  VAL25       0.1561
     31  C         10.6750   13.6310   62.9030 C.2    25  VAL25       0.2260
     32  O         10.6380   12.4030   62.7870 O.2    25  VAL25      -0.2867
     33  CB         9.5410   14.4720   60.8980 C.3    25  VAL25       0.0252
     34  CG1        8.4230   15.0800   61.7360 C.3    25  VAL25       0.0019
     35  CG2        9.7030   15.1930   59.5720 C.3    25  VAL25       0.0019
     36  N          8.2020   12.9380   66.3300 N.3    27  VAL27      -0.1231
     37  CA         6.9040   13.2100   66.9370 C.3    27  VAL27       0.1692
     38  C          6.7960   12.5290   68.3000 C.2    27  VAL27       0.2592
     39  O          7.6550   11.7300   68.6840 O.2    27  VAL27      -0.2718
     40  CB         5.7460   12.7160   66.0550 C.3    27  VAL27       0.0266
     41  CG1        5.7370   13.4670   64.7290 C.3    27  VAL27       0.0020
     42  CG2        5.8730   11.2270   65.8300 C.3    27  VAL27       0.0020
     43  N          5.7270   12.8390   69.0250 N.am   28  ASP28      -0.1974
     44  CA         5.5290   12.2740   70.3460 C.3    28  ASP28       0.1709
     45  C          6.6790   12.7070   71.2330 C.2    28  ASP28       0.2293
     46  O          7.1600   11.9430   72.0690 O.2    28  ASP28      -0.2864
     47  CB         5.4650   10.7440   70.2990 C.3    28  ASP28       0.1436
     48  CG         4.1210   10.2250   69.8040 C.2    28  ASP28       0.3671
     49  OD1        3.8930    8.9970   69.8690 O.co2  28  ASP28      -0.2456
     50  OD2        3.2950   11.0390   69.3510 O.co2  28  ASP28      -0.2456
     51  N          1.6810   20.2570   69.4990 N.3    59  TYR59      -0.1227
     52  CA         0.5140   19.5690   68.9300 C.3    59  TYR59       0.1736
     53  C         -0.6190   19.1710   69.8910 C.2    59  TYR59       0.2595
     54  O         -1.0640   19.9790   70.7070 O.2    59  TYR59      -0.2718
     55  CB         0.9830   18.3350   68.1470 C.3    59  TYR59       0.0548
     56  CG         1.4380   18.6770   66.7470 C.ar   59  TYR59      -0.0200
     57  CD1        2.6070   19.4040   66.5310 C.ar   59  TYR59      -0.0009
     58  CD2        0.6440   18.3640   65.6440 C.ar   59  TYR59      -0.0009
     59  CE1        2.9730   19.8230   65.2510 C.ar   59  TYR59       0.0417
     60  CE2        0.9980   18.7780   64.3520 C.ar   59  TYR59       0.0417
     61  CZ         2.1630   19.5090   64.1660 C.ar   59  TYR59       0.1957
     62  OH         2.5090   19.9320   62.9020 O.3    59  TYR59      -0.2866
     63  N         -1.0990   17.9280   69.7610 N.am   60  ASN60      -0.1960
     64  CA        -2.1750   17.3990   70.6150 C.3    60  ASN60       0.1819
     65  C         -1.8350   17.6110   72.0900 C.2    60  ASN60       0.2622
     66  O         -2.3950   18.4860   72.7600 O.2    60  ASN60      -0.2715
     67  CB        -2.4260   15.8860   70.3520 C.3    60  ASN60       0.1195
     68  CG        -1.1610   15.1110   69.9100 C.2    60  ASN60       0.2630
     69  OD1       -0.0440   15.4260   70.3260 O.2    60  ASN60      -0.2716
     70  ND2       -1.3530   14.0770   69.0840 N.am   60  ASN60      -0.0877
     71  N         -0.8970   16.8100   72.5790 N.am   61  SER61      -0.1936
     72  CA        -0.4370   16.8630   73.9570 C.3    61  SER61       0.2055
     73  C          1.0620   16.6010   73.9100 C.2    61  SER61       0.2643
     74  O          1.6700   16.1730   74.8920 O.2    61  SER61      -0.2714
     75  CB        -1.1280   15.7590   74.7370 C.3    61  SER61       0.2130
     76  OG        -1.1250   14.5740   73.9520 O.3    61  SER61      -0.2179
     77  N          1.6420   16.8630   72.7460 N.am   62  THR62      -0.1950
     78  CA         3.0560   16.6290   72.5060 C.3    62  THR62       0.1897
     79  C          3.6780   17.6920   71.6140 C.2    62  THR62       0.2313
     80  O          3.0400   18.6780   71.2370 O.2    62  THR62      -0.2863
     81  CB         3.2710   15.3010   71.7790 C.3    62  THR62       0.1794
     82  OG1        2.6400   15.3720   70.4940 O.3    62  THR62      -0.2208
     83  CG2        2.6680   14.1430   72.5640 C.3    62  THR62       0.0378
     84  N          6.4480   18.3190   68.1220 N.3    64  ARG64      -0.1245
     85  CA         6.9060   17.7790   66.8580 C.3    64  ARG64       0.1563
     86  C          8.0710   18.6570   66.4840 C.2    64  ARG64       0.2260
     87  O          7.9500   19.8680   66.5360 O.2    64  ARG64      -0.2867
     88  CB         5.8020   17.9260   65.8090 C.3    64  ARG64       0.0307
     89  CG         6.1710   17.5150   64.3900 C.3    64  ARG64       0.0489
     90  CD         4.9770   17.7150   63.4770 C.3    64  ARG64       0.2205
     91  NE         5.1630   17.0930   62.1690 N.pl3  64  ARG64      -0.0865
     92  CZ         5.5830   17.7320   61.0840 C.cat  64  ARG64       0.5346
     93  NH1        5.8630   19.0240   61.1410 N.pl3  64  ARG64       0.1354
     94  NH2        5.7170   17.0770   59.9420 N.pl3  64  ARG64       0.1354
@<TRIPOS>BOND
     1    20    21    2
     2    20    19    1
     3    22    19    1
     4    22    23    1
     5    19    18    1
     6    24    23   ar
     7    24    26   ar
     8    23    25   ar
     9    26    28   ar
    10    25    27   ar
    11    28    27   ar
    12    35    33    1
    13     9    10    2
    14     9     8    1
    15    94    92    1
    16    11     8    1
    17    11    12    1
    18     8     7    1
    19    14    12   ar
    20    14    16   ar
    21    29    30    1
    22    33    30    1
    23    33    34    1
    24    12    13   ar
    25    92    93    1
    26    92    91    2
    27    16    17   ar
    28    30    31    1
    29    13    15   ar
    30    91    90    1
    31    17    15   ar
    32    32    31    2
    33    62    61    1
    34    90    89    1
    35    61    60   ar
    36    61    59   ar
    37    60    58   ar
    38    89    88    1
    39    41    40    1
    40    59    57   ar
    41    58    56   ar
    42    88    85    1
    43     4     3    2
    44    42    40    1
    45     3     2    1
    46    40    37    1
    47    36    37    1
    48     5     2    1
    49     5     6    1
    50    86    87    2
    51    86    85    1
    52    57    56   ar
    53    56    55    1
    54    85    84    1
    55    37    38    1
    56     2     1    1
    57    55    52    1
    58    38    39    2
    59    38    43   am
    60    52    51    1
    61    52    53    1
    62    43    44    1
    63    70    68   am
    64    50    48   ar
    65    63    53   am
    66    63    64    1
    67    48    49   ar
    68    48    47    1
    69    53    54    2
    70    68    69    2
    71    68    67    1
    72    47    44    1
    73    44    45    1
    74    67    64    1
    75    82    81    1
    76    64    65    1
    77    45    46    2
    78    80    79    2
    79    79    78    1
    80    81    78    1
    81    81    83    1
    82    65    71   am
    83    65    66    2
    84    78    77    1
    85    71    72    1
    86    77    73   am
    87    73    72    1
    88    73    74    2
    89    76    75    1
    90    72    75    1
