@<TRIPOS>MOLECULE
tmp/1h3wA00.pdb
 125 117 0 0 0
SMALL
GASTEIGER

@<TRIPOS>ATOM
      1  N          8.3190   33.7200   11.2020 N.3     2  SER2       -0.1217
      2  CA         8.6270   32.4850   11.9020 C.3     2  SER2        0.1889
      3  C          9.3880   31.5380   10.9720 C.2     2  SER2        0.2288
      4  O          9.1190   31.5020    9.7700 O.2     2  SER2       -0.2866
      5  CB         7.3210   31.8340   12.3760 C.3     2  SER2        0.2089
      6  OG         6.4300   32.7930   12.9330 O.3     2  SER2       -0.2183
      7  N         10.4180   27.5230   10.4830 N.3     4  PHE4       -0.1241
      8  CA        10.2600   26.1280   10.8580 C.3     4  PHE4        0.1605
      9  C         11.2350   25.2170   10.0990 C.2     4  PHE4        0.2264
     10  O         11.2210   25.1620    8.8680 O.2     4  PHE4       -0.2867
     11  CB         8.8080   25.7120   10.6000 C.3     4  PHE4        0.0534
     12  CG         7.8050   26.6590   11.2010 C.ar    4  PHE4       -0.0203
     13  CD1        6.8430   27.2800   10.4030 C.ar    4  PHE4       -0.0042
     14  CD2        7.8520   26.9720   12.5580 C.ar    4  PHE4       -0.0042
     15  CE1        5.9430   28.2090   10.9490 C.ar    4  PHE4       -0.0003
     16  CE2        6.9590   27.8950   13.1120 C.ar    4  PHE4       -0.0003
     17  CZ         6.0040   28.5150   12.3050 C.ar    4  PHE4       -0.0000
     18  N         12.6160   21.4480    9.1940 N.3     6  PHE6       -0.1228
     19  CA        12.1540   20.0640    9.1430 C.3     6  PHE6        0.1721
     20  C         13.2040   19.0130    8.8090 C.2     6  PHE6        0.2437
     21  O         14.0420   19.2190    7.9390 O.2     6  PHE6       -0.2733
     22  CB        11.0290   19.9570    8.1220 C.3     6  PHE6        0.0547
     23  CG         9.8080   20.7300    8.4900 C.ar    6  PHE6       -0.0202
     24  CD1        8.8240   20.1600    9.2760 C.ar    6  PHE6       -0.0042
     25  CD2        9.6490   22.0490    8.0730 C.ar    6  PHE6       -0.0042
     26  CE1        7.6980   20.8910    9.6420 C.ar    6  PHE6       -0.0003
     27  CE2        8.5230   22.7840    8.4390 C.ar    6  PHE6       -0.0003
     28  CZ         7.5520   22.1980    9.2260 C.ar    6  PHE6       -0.0000
     29  N         13.1650   17.8650    9.5000 N.am    7  PRO7       -0.2729
     30  CA        14.0990   16.7560    9.2940 C.3     7  PRO7        0.1401
     31  C         13.6860   15.8850    8.1080 C.2     7  PRO7        0.2269
     32  O         12.5260   15.9070    7.6980 O.2     7  PRO7       -0.2865
     33  CB        14.0030   15.9890   10.5980 C.3     7  PRO7        0.0296
     34  CG        12.5610   16.1870   10.9760 C.3     7  PRO7        0.0237
     35  CD        12.3960   17.6630   10.7410 C.3     7  PRO7        0.0939
     36  N         14.3900   20.5220    5.4720 N.3    23  THR23      -0.1218
     37  CA        13.6180   21.6520    4.9560 C.3    23  THR23       0.1862
     38  C         13.4160   22.8410    5.8940 C.2    23  THR23       0.2287
     39  O         12.7930   22.7180    6.9500 O.2    23  THR23      -0.2866
     40  CB        12.2140   21.1900    4.5120 C.3    23  THR23       0.1770
     41  OG1       12.3240   19.9710    3.7670 O.3    23  THR23      -0.2211
     42  CG2       11.5480   22.2600    3.6510 C.3    23  THR23       0.0375
     43  N         11.6100   26.3710    6.4850 N.3    25  VAL25      -0.1245
     44  CA        10.4780   27.1450    5.9930 C.3    25  VAL25       0.1561
     45  C         10.3620   28.4620    6.7370 C.2    25  VAL25       0.2260
     46  O         10.6850   28.5380    7.9240 O.2    25  VAL25      -0.2867
     47  CB         9.1580   26.3900    6.1890 C.3    25  VAL25       0.0252
     48  CG1        8.0830   26.9710    5.2780 C.3    25  VAL25       0.0019
     49  CG2        9.3550   24.9230    5.9100 C.3    25  VAL25       0.0019
     50  N          7.6760   31.8580    7.3580 N.3    27  VAL27      -0.1231
     51  CA         6.3330   32.3840    7.1910 C.3    27  VAL27       0.1692
     52  C          6.2090   33.8120    7.7280 C.2    27  VAL27       0.2592
     53  O          6.9550   34.2210    8.6200 O.2    27  VAL27      -0.2718
     54  CB         5.3200   31.4590    7.8700 C.3    27  VAL27       0.0266
     55  CG1        5.5460   30.0490    7.3790 C.3    27  VAL27       0.0020
     56  CG2        5.4530   31.5320    9.3880 C.3    27  VAL27       0.0020
     57  N          5.2670   34.5670    7.1740 N.am   28  ASP28      -0.1974
     58  CA         5.0750   35.9540    7.5720 C.3    28  ASP28       0.1709
     59  C          6.3190   36.7520    7.2230 C.2    28  ASP28       0.2293
     60  O          7.0120   37.2570    8.1040 O.2    28  ASP28      -0.2864
     61  CB         4.7970   36.0620    9.0700 C.3    28  ASP28       0.1436
     62  CG         3.4860   35.4390    9.4530 C.2    28  ASP28       0.3671
     63  OD1        3.0460   35.6480   10.6050 O.co2  28  ASP28      -0.2456
     64  OD2        2.9010   34.7350    8.5960 O.co2  28  ASP28      -0.2456
     65  N          7.3080   32.6350   -2.7980 N.3    57  GLN57      -0.1245
     66  CA         5.8870   32.2440   -2.8270 C.3    57  GLN57       0.1566
     67  C          4.9890   33.2680   -2.1280 C.2    57  GLN57       0.2260
     68  O          5.0520   33.4060   -0.9110 O.2    57  GLN57      -0.2867
     69  CB         5.6840   30.9030   -2.1200 C.3    57  GLN57       0.0367
     70  CG         6.2950   29.7020   -2.8060 C.3    57  GLN57       0.0905
     71  CD         6.3760   28.4970   -1.8900 C.2    57  GLN57       0.2608
     72  OE1        7.0500   28.5350   -0.8600 O.2    57  GLN57      -0.2717
     73  NE2        5.6900   27.4210   -2.2580 N.am   57  GLN57      -0.0878
     74  N          1.6640   34.5500   -0.5110 N.3    59  TYR59      -0.1227
     75  CA         0.5050   33.9490    0.1530 C.3    59  TYR59       0.1736
     76  C         -0.4460   34.9850    0.7500 C.2    59  TYR59       0.2595
     77  O         -0.8130   35.9880    0.1300 O.2    59  TYR59      -0.2718
     78  CB         0.9740   33.0470    1.3130 C.3    59  TYR59       0.0548
     79  CG         1.1270   31.6130    0.8910 C.ar   59  TYR59      -0.0200
     80  CD1        2.1020   31.3140   -0.0750 C.ar   59  TYR59      -0.0009
     81  CD2        0.4600   30.5560    1.4970 C.ar   59  TYR59      -0.0009
     82  CE1        2.3210   29.9980   -0.5020 C.ar   59  TYR59       0.0417
     83  CE2        0.6890   29.2390    1.1200 C.ar   59  TYR59       0.0417
     84  CZ         1.5980   28.9790    0.1000 C.ar   59  TYR59       0.1957
     85  OH         1.7500   27.6680   -0.2530 O.3    59  TYR59      -0.2866
     86  N         -0.8300   34.6490    1.9800 N.am   60  ASN60      -0.1974
     87  CA        -1.6730   35.3910    2.9260 C.3    60  ASN60       0.1688
     88  C         -1.9840   36.8530    2.5670 C.2    60  ASN60       0.2292
     89  O         -3.1400   37.2660    2.4340 O.2    60  ASN60      -0.2864
     90  CB        -0.9220   35.3220    4.2670 C.3    60  ASN60       0.1181
     91  CG        -1.6480   35.9840    5.4090 C.2    60  ASN60       0.2629
     92  OD1       -2.1440   37.1040    5.2730 O.2    60  ASN60      -0.2716
     93  ND2       -1.6870   35.3030    6.5580 N.am   60  ASN60      -0.0877
     94  N          1.2270   38.0170    2.7220 N.3    62  THR62      -0.1218
     95  CA         2.5860   37.8460    3.1920 C.3    62  THR62       0.1862
     96  C          3.3040   36.8990    2.2190 C.2    62  THR62       0.2287
     97  O          2.7580   36.5220    1.1780 O.2    62  THR62      -0.2866
     98  CB         2.5620   37.2260    4.6150 C.3    62  THR62       0.1770
     99  OG1        3.8340   37.4000    5.2450 O.3    62  THR62      -0.2211
    100  CG2        2.2330   35.7360    4.5450 C.3    62  THR62       0.0375
    101  N          6.0520   33.3190    1.6800 N.3    64  ARG64      -0.1245
    102  CA         6.5340   32.0610    2.2180 C.3    64  ARG64       0.1563
    103  C          7.7350   31.5790    1.3990 C.2    64  ARG64       0.2260
    104  O          7.6910   31.5690    0.1640 O.2    64  ARG64      -0.2867
    105  CB         5.4000   31.0440    2.1660 C.3    64  ARG64       0.0307
    106  CG         5.7480   29.6690    2.6420 C.3    64  ARG64       0.0489
    107  CD         4.4840   28.8760    2.8820 C.3    64  ARG64       0.2205
    108  NE         4.7650   27.5760    3.4740 N.pl3  64  ARG64      -0.0865
    109  CZ         5.4200   26.6060    2.8490 C.cat  64  ARG64       0.5346
    110  NH1        5.8600   26.7910    1.6090 N.pl3  64  ARG64       0.1354
    111  NH2        5.6360   25.4510    3.4600 N.pl3  64  ARG64       0.1354
    112  N         10.7460   28.4710    0.8940 N.3    66  VAL66      -0.1245
    113  CA        11.2620   27.1690    1.2260 C.3    66  VAL66       0.1561
    114  C         12.6860   26.9800    0.7320 C.2    66  VAL66       0.2260
    115  O         13.0130   27.3460   -0.3860 O.2    66  VAL66      -0.2867
    116  CB        10.3660   26.0820    0.6210 C.3    66  VAL66       0.0252
    117  CG1       11.0700   24.7280    0.6610 C.3    66  VAL66       0.0019
    118  CG2        9.0430   26.0310    1.3850 C.3    66  VAL66       0.0019
    119  N         15.8850   23.9440    0.7120 N.3    68  VAL68      -0.1245
    120  CA        16.1130   22.5320    0.9760 C.3    68  VAL68       0.1561
    121  C         17.5660   22.0960    0.8590 C.2    68  VAL68       0.2260
    122  O         18.1760   22.1920   -0.2000 O.2    68  VAL68      -0.2867
    123  CB        15.2540   21.6650    0.0380 C.3    68  VAL68       0.0252
    124  CG1       15.3570   20.2070    0.4430 C.3    68  VAL68       0.0019
    125  CG2       13.8030   22.1470    0.0770 C.3    68  VAL68       0.0019
@<TRIPOS>BOND
     1    66    65    1
     2    66    67    1
     3    66    69    1
     4    70    69    1
     5    70    71    1
     6    73    71   am
     7    67    68    2
     8    71    72    2
     9    74    75    1
    10    82    80   ar
    11    82    84   ar
    12   115   114    2
    13    85    84    1
    14   122   121    2
    15    80    79   ar
    16   123   125    1
    17   123   124    1
    18   123   120    1
    19    84    83   ar
    20    77    76    2
    21    75    76    1
    22    75    78    1
    23   104   103    2
    24   116   117    1
    25   116   113    1
    26   116   118    1
    27   119   120    1
    28   114   113    1
    29    76    86   am
    30   121   120    1
    31    79    78    1
    32    79    81   ar
    33   112   113    1
    34    83    81   ar
    35    97    96    2
    36   103   102    1
    37   110   109    1
    38   101   102    1
    39    86    87    1
    40   105   102    1
    41   105   106    1
    42    96    95    1
    43    89    88    2
    44    88    87    1
    45   106   107    1
    46    94    95    1
    47   109   111    1
    48   109   108    2
    49   107   108    1
    50    87    90    1
    51    95    98    1
    52    42    40    1
    53    41    40    1
    54    90    91    1
    55    40    37    1
    56   100    98    1
    57    98    99    1
    58    37    36    1
    59    37    38    1
    60    92    91    2
    61    48    47    1
    62    91    93   am
    63    38    39    2
    64    49    47    1
    65    44    47    1
    66    44    43    1
    67    44    45    1
    68    45    46    2
    69    57    58    1
    70    57    52   am
    71    51    50    1
    72    51    52    1
    73    51    54    1
    74    59    58    1
    75    59    60    2
    76    55    54    1
    77    58    61    1
    78    32    31    2
    79    52    53    2
    80    54    56    1
    81    21    20    2
    82    25    27   ar
    83    25    23   ar
    84    31    30    1
    85    22    23    1
    86    22    19    1
    87    27    28   ar
    88    23    24   ar
    89    64    62   ar
    90    20    19    1
    91    20    29   am
    92    10     9    2
    93    61    62    1
    94    19    18    1
    95    28    26   ar
    96    24    26   ar
    97    30    29    1
    98    30    33    1
    99    62    63   ar
   100    29    35    1
   101     4     3    2
   102     9     8    1
   103    13    15   ar
   104    13    12   ar
   105     7     8    1
   106    33    34    1
   107    11     8    1
   108    11    12    1
   109    35    34    1
   110    15    17   ar
   111     3     2    1
   112    12    14   ar
   113     1     2    1
   114     2     5    1
   115    17    16   ar
   116     5     6    1
   117    14    16   ar
