@<TRIPOS>MOLECULE
tmp/1h41B00.pdb
 149 142 0 0 0
SMALL
GASTEIGER

@<TRIPOS>ATOM
      1  N         18.0710   -0.6990   31.2590 N.3   156  TRP156     -0.1241
      2  CA        18.3450   -2.0710   30.8660 C.3   156  TRP156      0.1605
      3  C         18.0180   -2.2980   29.3950 C.2   156  TRP156      0.2264
      4  O         17.2080   -3.1540   29.0310 O.2   156  TRP156     -0.2867
      5  CB        17.6450   -3.0500   31.7680 C.3   156  TRP156      0.0550
      6  CG        18.1190   -3.0350   33.2020 C.ar  156  TRP156      0.0003
      7  CD1       19.2100   -2.4280   33.7150 C.ar  156  TRP156      0.0946
      8  CD2       17.4770   -3.6780   34.2940 C.ar  156  TRP156      0.0152
      9  NE1       19.3450   -2.7170   35.0510 N.ar  156  TRP156     -0.2442
     10  CE2       18.2660   -3.4670   35.4370 C.ar  156  TRP156      0.0810
     11  CE3       16.2970   -4.4270   34.4290 C.ar  156  TRP156      0.0012
     12  CZ2       17.9250   -3.9700   36.6900 C.ar  156  TRP156      0.0191
     13  CZ3       15.9540   -4.9340   35.7030 C.ar  156  TRP156      0.0001
     14  CH2       16.7630   -4.6970   36.7990 C.ar  156  TRP156      0.0015
     15  N         14.7650   -4.5990   28.5940 N.3   164  GLU164     -0.1231
     16  CA        14.5190   -5.6970   29.5320 C.3   164  GLU164      0.1699
     17  C         13.8660   -5.1560   30.8010 C.2   164  GLU164      0.2592
     18  O         14.3850   -4.2490   31.4330 O.2   164  GLU164     -0.2718
     19  CB        15.8140   -6.4430   29.7940 C.3   164  GLU164      0.0402
     20  CG        15.7290   -7.4880   30.9010 C.3   164  GLU164      0.1161
     21  CD        16.9040   -8.4380   30.9980 C.2   164  GLU164      0.3649
     22  OE1       17.8130   -8.3680   30.1410 O.co2 164  GLU164     -0.2457
     23  OE2       16.9090   -9.2580   31.9530 O.co2 164  GLU164     -0.2457
     24  N         12.6870   -5.6710   31.1460 N.am  165  ARG165     -0.1980
     25  CA        11.8600   -5.0920   32.2000 C.3   165  ARG165      0.1597
     26  C         11.5140   -3.6850   31.8140 C.2   165  ARG165      0.2287
     27  O         11.7150   -2.7270   32.5830 O.2   165  ARG165     -0.2864
     28  CB        12.5050   -5.2180   33.5900 C.3   165  ARG165      0.0334
     29  CG        13.1010   -6.5920   33.9010 C.3   165  ARG165      0.0492
     30  CD        12.1570   -7.7460   33.6890 C.3   165  ARG165      0.2205
     31  NE        12.8210   -9.0060   33.9890 N.pl3 165  ARG165     -0.0865
     32  CZ        12.2260  -10.1900   34.0640 C.cat 165  ARG165      0.5346
     33  NH1       10.9280  -10.2840   33.8170 N.pl3 165  ARG165      0.1354
     34  NH2       12.9360  -11.2800   34.3430 N.pl3 165  ARG165      0.1354
     35  N         22.0490   -2.2240   28.8040 N.3   205  ASN205     -0.1225
     36  CA        21.6920   -3.3090   29.6870 C.3   205  ASN205      0.1785
     37  C         22.8780   -3.8520   30.4250 C.2   205  ASN205      0.2597
     38  O         23.9660   -4.0350   29.8560 O.2   205  ASN205     -0.2718
     39  CB        21.0280   -4.4560   28.8740 C.3   205  ASN205      0.1169
     40  CG        20.2190   -5.3920   29.7110 C.2   205  ASN205      0.2627
     41  OD1       20.2720   -5.4010   30.9360 O.2   205  ASN205     -0.2716
     42  ND2       19.4010   -6.2180   29.0170 N.am  205  ASN205     -0.0877
     43  N         22.6470   -4.1170   31.7010 N.am  206  VAL206     -0.1966
     44  CA        23.5740   -4.8530   32.5430 C.3   206  VAL206      0.1727
     45  C         23.8760   -6.2590   32.0390 C.2   206  VAL206      0.2616
     46  O         24.9560   -6.8070   32.3090 O.2   206  VAL206     -0.2715
     47  CB        23.1220   -4.8890   34.0150 C.3   206  VAL206      0.0290
     48  CG1       23.1180   -3.5010   34.6220 C.3   206  VAL206      0.0023
     49  CG2       21.7140   -5.5020   34.1420 C.3   206  VAL206      0.0023
     50  N         22.8980   -6.8700   31.3540 N.am  207  ASN207     -0.1972
     51  CA        23.1300   -8.0880   30.6000 C.3   207  ASN207      0.1688
     52  C         23.8250   -7.6050   29.3200 C.2   207  ASN207      0.2292
     53  O         23.1630   -7.2400   28.3270 O.2   207  ASN207     -0.2864
     54  CB        21.8130   -8.8060   30.3780 C.3   207  ASN207      0.1181
     55  CG        21.2440   -9.3240   31.6870 C.2   207  ASN207      0.2629
     56  OD1       22.0160   -9.6820   32.6240 O.2   207  ASN207     -0.2716
     57  ND2       19.8920   -9.3660   31.8100 N.am  207  ASN207     -0.0877
     58  N         27.6670   -6.0820   35.8320 N.3   284  LYS284     -0.1245
     59  CA        26.9850   -7.2880   36.3260 C.3   284  LYS284      0.1561
     60  C         27.8590   -8.4810   35.8610 C.2   284  LYS284      0.2260
     61  O         27.9950   -8.7300   34.6700 O.2   284  LYS284     -0.2867
     62  CB        25.6150   -7.3970   35.7170 C.3   284  LYS284      0.0271
     63  CG        24.8380   -8.6260   36.1420 C.3   284  LYS284      0.0035
     64  CD        23.5230   -8.6630   35.4380 C.3   284  LYS284      0.0206
     65  CE        22.6950   -9.8650   35.8990 C.3   284  LYS284      0.1093
     66  NZ        21.3340   -9.9500   35.3310 N.3   284  LYS284     -0.1314
     67  N         26.5540  -13.5990   37.3940 N.3   287  SER287     -0.1202
     68  CA        25.1500  -13.5640   37.8750 C.3   287  SER287      0.2020
     69  C         24.3620  -13.9500   36.6280 C.2   287  SER287      0.2618
     70  O         24.5570  -13.3210   35.5760 O.2   287  SER287     -0.2717
     71  CB        24.7730  -12.1120   38.3540 C.3   287  SER287      0.2103
     72  OG        23.3800  -11.8840   38.7160 O.3   287  SER287     -0.2182
     73  N         23.5530  -15.0220   36.6940 N.am  288  ALA288     -0.1979
     74  CA        22.6120  -15.3660   35.6120 C.3   288  ALA288      0.1597
     75  C         23.2550  -15.6470   34.2230 C.2   288  ALA288      0.2287
     76  O         22.6500  -15.3980   33.1760 O.2   288  ALA288     -0.2864
     77  CB        21.5330  -14.2510   35.5040 C.3   288  ALA288      0.0319
     78  N         28.1250   -4.2590   40.6030 N.3   321  ARG321     -0.1245
     79  CA        26.8930   -4.7270   41.2170 C.3   321  ARG321      0.1563
     80  C         27.0890   -5.9290   42.0880 C.2   321  ARG321      0.2260
     81  O         27.7370   -6.8850   41.6890 O.2   321  ARG321     -0.2867
     82  CB        25.8140   -4.9930   40.1650 C.3   321  ARG321      0.0307
     83  CG        25.4600   -3.8000   39.3930 C.3   321  ARG321      0.0489
     84  CD        24.4510   -4.0640   38.3790 C.3   321  ARG321      0.2205
     85  NE        23.0850   -4.2160   38.8620 N.pl3 321  ARG321     -0.0865
     86  CZ        22.2080   -5.1740   38.5300 C.cat 321  ARG321      0.5346
     87  NH1       22.6070   -6.2660   37.9070 N.pl3 321  ARG321      0.1354
     88  NH2       20.9170   -5.0520   38.8680 N.pl3 321  ARG321      0.1354
     89  N         19.1800  -18.3370   49.8920 N.3   325  ARG325     -0.1245
     90  CA        19.5250  -17.2750   48.9660 C.3   325  ARG325      0.1563
     91  C         19.6120  -15.8920   49.6380 C.2   325  ARG325      0.2260
     92  O         20.3640  -15.0450   49.2150 O.2   325  ARG325     -0.2867
     93  CB        18.5240  -17.2370   47.7810 C.3   325  ARG325      0.0307
     94  CG        18.6900  -15.9720   46.9290 C.3   325  ARG325      0.0489
     95  CD        18.0240  -16.0030   45.6240 C.3   325  ARG325      0.2205
     96  NE        18.0920  -14.7120   44.9290 N.pl3 325  ARG325     -0.0865
     97  CZ        17.3040  -14.3860   43.8680 C.cat 325  ARG325      0.5346
     98  NH1       16.4270  -15.2520   43.3690 N.pl3 325  ARG325      0.1354
     99  NH2       17.3800  -13.1910   43.2900 N.pl3 325  ARG325      0.1354
    100  N         21.3880   -3.5600   45.6440 N.3   349  LYS349     -0.1245
    101  CA        19.9450   -3.3580   45.6840 C.3   349  LYS349      0.1561
    102  C         19.4470   -3.0910   47.1060 C.2   349  LYS349      0.2260
    103  O         20.0910   -3.4930   48.0880 O.2   349  LYS349     -0.2867
    104  CB        19.2580   -4.5710   45.1030 C.3   349  LYS349      0.0271
    105  CG        19.4990   -4.8050   43.6450 C.3   349  LYS349      0.0035
    106  CD        18.6140   -5.8640   43.0240 C.3   349  LYS349      0.0206
    107  CE        19.0000   -6.1270   41.5490 C.3   349  LYS349      0.1093
    108  NZ        18.0960   -7.2330   40.9400 N.3   349  LYS349     -0.1314
    109  N         15.5160   -9.3310   45.3660 N.3   354  ASP354     -0.1239
    110  CA        15.3720   -8.7470   44.0120 C.3   354  ASP354      0.1674
    111  C         14.1570   -7.8460   43.9000 C.2   354  ASP354      0.2266
    112  O         13.1440   -8.2560   43.3290 O.2   354  ASP354     -0.2867
    113  CB        15.2150   -9.8660   42.9670 C.3   354  ASP354      0.1410
    114  CG        15.1390   -9.3610   41.5670 C.2   354  ASP354      0.3668
    115  OD1       15.4910   -8.1800   41.3160 O.co2 354  ASP354     -0.2456
    116  OD2       14.7020  -10.1250   40.6580 O.co2 354  ASP354     -0.2456
    117  N          8.8070   -3.9130   37.3810 N.3   382  GLU382     -0.1245
    118  CA         8.9630   -5.3210   37.1850 C.3   382  GLU382      0.1567
    119  C          8.0800   -6.1330   38.1150 C.2   382  GLU382      0.2260
    120  O          7.5200   -7.1670   37.7130 O.2   382  GLU382     -0.2867
    121  CB        10.4280   -5.7190   37.3930 C.3   382  GLU382      0.0388
    122  CG        10.6660   -7.2160   37.2460 C.3   382  GLU382      0.1160
    123  CD        12.1100   -7.6510   37.3260 C.2   382  GLU382      0.3649
    124  OE1       13.0210   -6.8140   37.6660 O.co2 382  GLU382     -0.2457
    125  OE2       12.3060   -8.8670   37.0860 O.co2 382  GLU382     -0.2457
    126  N          7.1770  -12.3160   35.4340 N.3   517  HIS517     -0.1241
    127  CA         6.8400  -11.5370   36.5980 C.3   517  HIS517      0.1621
    128  C          5.5700  -10.7030   36.5590 C.2   517  HIS517      0.2264
    129  O          5.3720   -9.8700   37.4340 O.2   517  HIS517     -0.2867
    130  CB         8.0570  -10.7260   37.1040 C.3   517  HIS517      0.0745
    131  CG         9.2960  -11.5340   37.2990 C.ar  517  HIS517      0.0817
    132  ND1       10.5650  -10.9930   37.1900 N.ar  517  HIS517     -0.2268
    133  CD2        9.4810  -12.8410   37.6400 C.ar  517  HIS517      0.1154
    134  CE1       11.4660  -11.9290   37.4240 C.ar  517  HIS517      0.1986
    135  NE2       10.8360  -13.0540   37.7300 N.ar  517  HIS517     -0.2212
    136  N          9.6800   -7.5000   25.6890 N.3   691  TRP691     -0.1241
    137  CA        10.9020   -8.2930   25.9010 C.3   691  TRP691      0.1605
    138  C         10.6890   -9.7460   26.3520 C.2   691  TRP691      0.2264
    139  O         11.3410  -10.6710   25.8700 O.2   691  TRP691     -0.2867
    140  CB        11.7910   -7.5590   26.9090 C.3   691  TRP691      0.0550
    141  CG        12.9980   -8.3410   27.3180 C.ar  691  TRP691      0.0003
    142  CD1       14.1440   -8.4830   26.6130 C.ar  691  TRP691      0.0946
    143  CD2       13.1540   -9.1270   28.4990 C.ar  691  TRP691      0.0152
    144  NE1       15.0140   -9.2950   27.2790 N.ar  691  TRP691     -0.2442
    145  CE2       14.4280   -9.7260   28.4330 C.ar  691  TRP691      0.0810
    146  CE3       12.3390   -9.3950   29.5960 C.ar  691  TRP691      0.0012
    147  CZ2       14.9230  -10.5580   29.4190 C.ar  691  TRP691      0.0191
    148  CZ3       12.8350  -10.2130   30.6100 C.ar  691  TRP691      0.0001
    149  CH2       14.1390  -10.7830   30.5040 C.ar  691  TRP691      0.0015
@<TRIPOS>BOND
     1   136   137    1
     2   139   138    2
     3   137   138    1
     4   137   140    1
     5   142   144   ar
     6   142   141   ar
     7   140   141    1
     8   144   145   ar
     9   141   143   ar
    10    53    52    2
    11   145   143   ar
    12   145   147   ar
    13   143   146   ar
    14    15    16    1
    15    35    36    1
    16    39    36    1
    17    39    40    1
    18    42    40   am
    19     4     3    2
    20    52    51    1
    21     3     2    1
    22   147   149   ar
    23    16    19    1
    24    16    17    1
    25   146   148   ar
    26    36    37    1
    27    40    41    2
    28    19    20    1
    29    38    37    2
    30    22    21   ar
    31    54    51    1
    32    54    55    1
    33    37    43   am
    34   149   148   ar
    35    51    50    1
    36    17    24   am
    37    17    18    2
    38     2     1    1
    39     2     5    1
    40    20    21    1
    41    21    23   ar
    42    24    25    1
    43    50    45   am
    44    55    57   am
    45    55    56    2
    46    43    44    1
    47     5     6    1
    48    26    25    1
    49    26    27    2
    50    45    46    2
    51    45    44    1
    52    25    28    1
    53    44    47    1
    54    76    75    2
    55     6     7   ar
    56     6     8   ar
    57    28    29    1
    58    30    29    1
    59    30    31    1
    60     7     9   ar
    61    33    32    1
    62    31    32    2
    63    47    49    1
    64    47    48    1
    65    32    34    1
    66    75    74    1
    67     8    11   ar
    68     8    10   ar
    69    11    13   ar
    70    61    60    2
    71     9    10   ar
    72    66    65    1
    73   126   127    1
    74    10    12   ar
    75    64    65    1
    76    64    63    1
    77    77    74    1
    78    70    69    2
    79    74    73    1
    80    13    14   ar
    81    62    63    1
    82    62    59    1
    83    58    59    1
    84    60    59    1
    85   128   127    1
    86   128   129    2
    87   127   130    1
    88    69    73   am
    89    69    68    1
    90    12    14   ar
    91   125   123   ar
    92   130   131    1
    93   118   117    1
    94   118   121    1
    95   118   119    1
    96   132   131   ar
    97   132   134   ar
    98   122   123    1
    99   122   121    1
   100   131   133   ar
   101   123   124   ar
   102    67    68    1
   103   134   135   ar
   104   133   135   ar
   105   120   119    2
   106    68    71    1
   107    87    86    1
   108    71    72    1
   109    84    85    1
   110    84    83    1
   111    86    85    2
   112    86    88    1
   113    83    82    1
   114    82    79    1
   115    78    79    1
   116   116   114   ar
   117   108   107    1
   118    79    80    1
   119   115   114   ar
   120   107   106    1
   121   114   113    1
   122    81    80    2
   123   113   110    1
   124   106   105    1
   125    99    97    1
   126   112   111    2
   127    98    97    1
   128   105   104    1
   129    97    96    2
   130   111   110    1
   131   110   109    1
   132    96    95    1
   133   104   101    1
   134    95    94    1
   135   100   101    1
   136   101   102    1
   137    94    93    1
   138   102   103    2
   139    93    90    1
   140    90    91    1
   141    90    89    1
   142    92    91    2
