@<TRIPOS>MOLECULE
tmp/1h42A00.pdb
 140 134 0 0 0
SMALL
GASTEIGER

@<TRIPOS>ATOM
      1  N        -11.5140   24.7780   -1.7210 N.3    51  SER51      -0.1217
      2  CA       -12.2890   25.0620   -0.5130 C.3    51  SER51       0.1889
      3  C        -12.4710   23.8030    0.3330 C.2    51  SER51       0.2288
      4  O        -12.2300   22.7010   -0.1510 O.2    51  SER51      -0.2866
      5  CB       -13.6680   25.6240   -0.8780 C.3    51  SER51       0.2089
      6  OG       -13.5660   26.9130   -1.4500 O.3    51  SER51      -0.2183
      7  N        -20.7990   24.6830    5.6930 N.3    69  ARG69      -0.1231
      8  CA       -20.5190   25.9490    5.0240 C.3    69  ARG69       0.1694
      9  C        -19.1330   25.8210    4.4010 C.2    69  ARG69       0.2592
     10  O        -18.2430   25.2000    4.9940 O.2    69  ARG69      -0.2718
     11  CB       -20.5590   27.1180    6.0260 C.3    69  ARG69       0.0321
     12  CG       -21.9460   27.7270    6.2890 C.3    69  ARG69       0.0489
     13  CD       -22.8020   26.8510    7.2030 C.3    69  ARG69       0.2205
     14  NE       -23.8320   27.5960    7.9230 N.pl3  69  ARG69      -0.0865
     15  CZ       -24.8020   27.0410    8.6470 C.cat  69  ARG69       0.5346
     16  NH1      -24.8940   25.7210    8.7570 N.pl3  69  ARG69       0.1354
     17  NH2      -25.6880   27.8080    9.2630 N.pl3  69  ARG69       0.1354
     18  N        -18.9990   26.2840    3.1560 N.am   70  LEU70      -0.1966
     19  CA       -17.7400   26.1980    2.4120 C.3    70  LEU70       0.1728
     20  C        -16.8200   27.3490    2.7530 C.2    70  LEU70       0.2616
     21  O        -17.2730   28.4710    2.9060 O.2    70  LEU70      -0.2715
     22  CB       -17.9910   26.1950    0.9000 C.3    70  LEU70       0.0311
     23  CG       -18.6340   24.9520    0.2770 C.3    70  LEU70       0.0022
     24  CD1      -18.8290   25.1780   -1.2170 C.3    70  LEU70       0.0001
     25  CD2      -17.7670   23.7240    0.5330 C.3    70  LEU70       0.0001
     26  N        -15.5640   27.0350    3.0400 N.am   71  TYR71      -0.1960
     27  CA       -14.5610   28.0650    3.2760 C.3    71  TYR71       0.1771
     28  C        -13.3740   27.8560    2.3620 C.2    71  TYR71       0.2620
     29  O        -12.8610   26.7470    2.2760 O.2    71  TYR71      -0.2715
     30  CB       -14.1020   28.0580    4.7380 C.3    71  TYR71       0.0574
     31  CG       -15.1640   28.4610    5.7280 C.ar   71  TYR71      -0.0198
     32  CD1      -15.4150   29.8120    5.9900 C.ar   71  TYR71      -0.0009
     33  CD2      -16.0180   27.4990    6.3080 C.ar   71  TYR71      -0.0009
     34  CE1      -16.5060   30.2140    6.7920 C.ar   71  TYR71       0.0417
     35  CE2      -17.1230   27.8890    7.1080 C.ar   71  TYR71       0.0417
     36  CZ       -17.3590   29.2530    7.3330 C.ar   71  TYR71       0.1957
     37  OH       -18.4730   29.6620    8.0180 O.3    71  TYR71      -0.2866
     38  N        -12.9030   28.9320    1.7310 N.am   72  SER72      -0.1950
     39  CA       -11.7080   28.8770    0.8850 C.3    72  SER72       0.1924
     40  C        -10.4940   28.5700    1.7540 C.2    72  SER72       0.2314
     41  O        -10.3820   29.0810    2.8690 O.2    72  SER72      -0.2863
     42  CB       -11.4800   30.2020    0.1410 C.3    72  SER72       0.2116
     43  OG       -12.6530   30.6890   -0.4900 O.3    72  SER72      -0.2180
     44  N         -9.5470   31.3840    6.7330 N.3    90  CYS90      -0.1221
     45  CA        -9.6050   32.8090    7.0340 C.3    90  CYS90       0.1808
     46  C        -11.0730   33.2040    7.1010 C.2    90  CYS90       0.2601
     47  O        -11.7410   33.3620    6.0710 O.2    90  CYS90      -0.2717
     48  CB        -8.8610   33.5990    5.9540 C.3    90  CYS90       0.0970
     49  SG        -9.0230   35.3930    6.0220 S.3    90  CYS90      -0.0800
     50  N        -11.5930   33.2170    8.3280 N.am   91  VAL91      -0.1965
     51  CA       -13.0310   33.2510    8.5860 C.3    91  VAL91       0.1727
     52  C        -13.4550   34.5900    9.1970 C.2    91  VAL91       0.2616
     53  O        -13.0290   34.9420   10.3010 O.2    91  VAL91      -0.2715
     54  CB       -13.4610   32.0850    9.5370 C.3    91  VAL91       0.0290
     55  CG1      -14.9740   32.0580    9.7160 C.3    91  VAL91       0.0023
     56  CG2      -13.0000   30.7460    8.9860 C.3    91  VAL91       0.0023
     57  N        -14.3400   35.2970    8.4920 N.am   92  ARG92      -0.1977
     58  CA       -15.0050   36.4850    9.0200 C.3    92  ARG92       0.1597
     59  C        -16.2000   36.0610    9.8620 C.2    92  ARG92       0.2287
     60  O        -16.9670   35.1970    9.4480 O.2    92  ARG92      -0.2864
     61  CB       -15.4830   37.3930    7.8780 C.3    92  ARG92       0.0334
     62  CG       -15.9250   38.7890    8.3090 C.3    92  ARG92       0.0492
     63  CD       -16.3720   39.6300    7.1250 C.3    92  ARG92       0.2205
     64  NE       -17.6400   39.1550    6.5750 N.pl3  92  ARG92      -0.0865
     65  CZ       -18.7970   39.8110    6.6510 C.cat  92  ARG92       0.5346
     66  NH1      -18.8730   40.9890    7.2630 N.pl3  92  ARG92       0.1354
     67  NH2      -19.8800   39.3030    6.0750 N.pl3  92  ARG92       0.1354
     68  N        -19.7350   36.6830   10.8020 N.3    94  LEU94      -0.1245
     69  CA       -20.8910   37.3490   10.2220 C.3    94  LEU94       0.1561
     70  C        -21.7860   37.9490   11.3090 C.2    94  LEU94       0.2260
     71  O        -22.2130   37.2450   12.2270 O.2    94  LEU94      -0.2867
     72  CB       -21.6750   36.3540    9.3720 C.3    94  LEU94       0.0270
     73  CG       -22.8800   36.8680    8.5960 C.3    94  LEU94       0.0019
     74  CD1      -22.4660   37.6570    7.3640 C.3    94  LEU94       0.0001
     75  CD2      -23.6890   35.6720    8.2180 C.3    94  LEU94       0.0001
     76  N        -23.8140   34.8590   12.6760 N.3   107  GLY107     -0.1210
     77  CA       -23.8500   33.6880   11.8050 C.3   107  GLY107      0.1956
     78  C        -23.3580   32.4260   12.4930 C.2   107  GLY107      0.2612
     79  O        -22.3770   32.4820   13.2220 O.2   107  GLY107     -0.2717
     80  N        -24.0200   31.2960   12.2460 N.am  108  VAL108     -0.1965
     81  CA       -23.8120   30.0580   13.0100 C.3   108  VAL108      0.1727
     82  C        -22.3850   29.4920   12.9140 C.2   108  VAL108      0.2616
     83  O        -21.6660   29.4950   13.9140 O.2   108  VAL108     -0.2715
     84  CB       -24.8670   28.9700   12.6120 C.3   108  VAL108      0.0290
     85  CG1      -24.6250   27.6530   13.3700 C.3   108  VAL108      0.0023
     86  CG2      -26.2770   29.4760   12.9180 C.3   108  VAL108      0.0023
     87  N        -21.9460   29.1100   11.7100 N.am  109  CYS109     -0.1954
     88  CA       -20.6430   28.4550   11.5380 C.3   109  CYS109      0.1843
     89  C        -19.4620   29.3890   11.7220 C.2   109  CYS109      0.2626
     90  O        -18.4250   28.9590   12.2200 O.2   109  CYS109     -0.2714
     91  CB       -20.5340   27.7870   10.1660 C.3   109  CYS109      0.0997
     92  SG       -19.2170   26.5900   10.0000 S.3   109  CYS109     -0.0797
     93  N        -19.6300   30.6640   11.3670 N.am  110  SER110     -0.1950
     94  CA       -18.5200   31.6090   11.4490 C.3   110  SER110      0.1924
     95  C        -18.2710   32.1620   12.8420 C.2   110  SER110      0.2314
     96  O        -17.1220   32.3980   13.1840 O.2   110  SER110     -0.2863
     97  CB       -18.6660   32.7570   10.4460 C.3   110  SER110      0.2116
     98  OG       -19.7330   33.6310   10.7690 O.3   110  SER110     -0.2180
     99  N        -12.4160   38.9090    2.7600 N.3   149  THR149     -0.1218
    100  CA       -11.9530   37.5230    2.8810 C.3   149  THR149      0.1862
    101  C        -11.7120   36.8710    1.5200 C.2   149  THR149      0.2287
    102  O        -11.2710   35.7310    1.4400 O.2   149  THR149     -0.2866
    103  CB       -12.9390   36.6420    3.6850 C.3   149  THR149      0.1770
    104  OG1      -14.2360   36.6730    3.0750 O.3   149  THR149     -0.2211
    105  CG2      -13.0330   37.1270    5.1160 C.3   149  THR149      0.0375
    106  N         -8.3180   35.1750    0.5400 N.3   152  THR152     -0.1218
    107  CA        -7.9990   33.8420    1.0330 C.3   152  THR152      0.1862
    108  C         -7.4010   32.8630   -0.0060 C.2   152  THR152      0.2287
    109  O         -6.3190   32.3310    0.2610 O.2   152  THR152     -0.2866
    110  CB        -9.2250   33.2420    1.8040 C.3   152  THR152      0.1770
    111  OG1       -9.6160   34.1430    2.8460 O.3   152  THR152     -0.2211
    112  CG2       -8.9080   31.9260    2.4140 C.3   152  THR152      0.0375
    113  N        -15.0160   33.4990   -7.8570 N.3   293  GLU293     -0.1231
    114  CA       -15.6130   32.8430   -6.6980 C.3   293  GLU293      0.1699
    115  C        -16.1020   33.9120   -5.7270 C.2   293  GLU293      0.2593
    116  O        -15.3220   34.4670   -4.9490 O.2   293  GLU293     -0.2718
    117  CB       -14.5800   31.9410   -6.0230 C.3   293  GLU293      0.0402
    118  CG       -15.1310   31.0010   -4.9850 C.3   293  GLU293      0.1161
    119  CD       -14.0450   30.1760   -4.3280 C.2   293  GLU293      0.3649
    120  OE1      -13.9090   28.9860   -4.6830 O.co2 293  GLU293     -0.2457
    121  OE2      -13.3460   30.7030   -3.4340 O.co2 293  GLU293     -0.2457
    122  N        -17.3730   34.2770   -5.8670 N.am  294  THR294     -0.1939
    123  CA       -17.9820   35.2850   -5.0140 C.3   294  THR294      0.2028
    124  C        -19.1780   34.7370   -4.2470 C.2   294  THR294      0.2642
    125  O        -19.7590   33.7170   -4.6310 O.2   294  THR294     -0.2714
    126  CB       -18.4130   36.5330   -5.8120 C.3   294  THR294      0.1808
    127  OG1      -19.2450   36.1450   -6.9070 O.3   294  THR294     -0.2208
    128  CG2      -17.2010   37.2980   -6.3110 C.3   294  THR294      0.0379
    129  N        -19.4660   35.3690   -3.1090 N.am  295  TYR295     -0.1973
    130  CA       -20.3810   34.8240   -2.1010 C.3   295  TYR295      0.1639
    131  C        -21.0370   35.9010   -1.2440 C.2   295  TYR295      0.2290
    132  O        -21.9010   35.5480   -0.4150 O.2   295  TYR295     -0.2864
    133  CB       -19.6480   33.8200   -1.1910 C.3   295  TYR295      0.0560
    134  CG       -18.2750   34.2470   -0.6810 C.ar  295  TYR295     -0.0198
    135  CD1      -18.1310   34.9550    0.5370 C.ar  295  TYR295     -0.0009
    136  CD2      -17.1040   33.8840   -1.3810 C.ar  295  TYR295     -0.0009
    137  CE1      -16.8470   35.2970    1.0400 C.ar  295  TYR295      0.0417
    138  CE2      -15.8200   34.2140   -0.8930 C.ar  295  TYR295      0.0417
    139  CZ       -15.7010   34.9200    0.3140 C.ar  295  TYR295      0.1957
    140  OH       -14.4510   35.2300    0.7800 O.3   295  TYR295     -0.2866
@<TRIPOS>BOND
     1   113   114    1
     2   127   126    1
     3   114   117    1
     4   114   115    1
     5   128   126    1
     6   117   118    1
     7   122   115   am
     8   122   123    1
     9   126   123    1
    10   115   116    2
    11   123   124    1
    12   118   119    1
    13   120   119   ar
    14   125   124    2
    15   119   121   ar
    16   124   129   am
    17   129   130    1
    18   130   131    1
    19   130   133    1
    20     1     2    1
    21     6     5    1
    22   136   138   ar
    23   136   134   ar
    24   131   132    2
    25    24    23    1
    26   133   134    1
    27   138   139   ar
    28     5     2    1
    29   134   135   ar
    30     2     3    1
    31    43    42    1
    32     4     3    2
    33   108   109    2
    34   108   107    1
    35    42    39    1
    36    23    25    1
    37    23    22    1
    38   139   140    1
    39   139   137   ar
    40   135   137   ar
    41   106   107    1
    42    39    38    1
    43    39    40    1
    44    22    19    1
    45   107   110    1
    46   102   101    2
    47   101   100    1
    48    38    28   am
    49    40    41    2
    50   110   112    1
    51   110   111    1
    52    29    28    2
    53    28    27    1
    54    19    20    1
    55    19    18    1
    56    20    21    2
    57    20    26   am
    58    99   100    1
    59   100   103    1
    60    26    27    1
    61   104   103    1
    62    18     9   am
    63    27    30    1
    64   103   105    1
    65     9    10    2
    66     9     8    1
    67    30    31    1
    68     8     7    1
    69     8    11    1
    70    31    32   ar
    71    31    33   ar
    72    48    49    1
    73    48    45    1
    74    32    34   ar
    75    11    12    1
    76    47    46    2
    77    67    65    1
    78    12    13    1
    79    33    35   ar
    80    64    65    2
    81    64    63    1
    82    65    66    1
    83    44    45    1
    84    34    36   ar
    85    45    46    1
    86    46    50   am
    87    35    36   ar
    88    63    62    1
    89    13    14    1
    90    36    37    1
    91    74    73    1
    92    61    62    1
    93    61    58    1
    94    14    15    2
    95    75    73    1
    96    50    51    1
    97    57    58    1
    98    57    52   am
    99    51    52    1
   100    51    54    1
   101    73    72    1
   102    15    16    1
   103    15    17    1
   104    56    54    1
   105    58    59    1
   106    52    53    2
   107    72    69    1
   108    60    59    2
   109    54    55    1
   110    92    91    1
   111    91    88    1
   112    69    68    1
   113    69    70    1
   114    97    98    1
   115    97    94    1
   116    70    71    2
   117    93    94    1
   118    93    89   am
   119    94    95    1
   120    88    87    1
   121    88    89    1
   122    87    82   am
   123    89    90    2
   124    77    78    1
   125    77    76    1
   126    80    78   am
   127    80    81    1
   128    78    79    2
   129    84    86    1
   130    84    81    1
   131    84    85    1
   132    95    96    2
   133    82    81    1
   134    82    83    2
