@<TRIPOS>MOLECULE
tmp/1h46A01.pdb
 174 165 0 0 0
SMALL
GASTEIGER

@<TRIPOS>ATOM
      1  N          3.0170   -3.3810   23.9950 N.3   139  ALA139     -0.1245
      2  CA         3.9770   -2.6470   23.1800 C.3   139  ALA139      0.1562
      3  C          5.0860   -3.5730   22.6780 C.2   139  ALA139      0.2260
      4  O          5.5320   -4.4890   23.3750 O.2   139  ALA139     -0.2867
      5  CB         4.5830   -1.5040   23.9410 C.3   139  ALA139      0.0290
      6  N          8.5870   -2.8260   20.6590 N.3   141  TYR141     -0.1241
      7  CA         9.3820   -1.6930   20.2440 C.3   141  TYR141      0.1605
      8  C         10.8590   -1.9350   20.2760 C.2   141  TYR141      0.2264
      9  O         11.3020   -2.9370   20.8310 O.2   141  TYR141     -0.2867
     10  CB         9.0440   -0.4510   21.0400 C.3   141  TYR141      0.0534
     11  CG         9.2570   -0.5280   22.5200 C.ar  141  TYR141     -0.0201
     12  CD1        8.3490   -1.1960   23.3510 C.ar  141  TYR141     -0.0009
     13  CD2       10.2960    0.1780   23.0990 C.ar  141  TYR141     -0.0009
     14  CE1        8.5240   -1.1890   24.7300 C.ar  141  TYR141      0.0417
     15  CE2       10.4740    0.2040   24.4650 C.ar  141  TYR141      0.0417
     16  CZ         9.5860   -0.4750   25.2750 C.ar  141  TYR141      0.1957
     17  OH         9.7790   -0.4400   26.6440 O.3   141  TYR141     -0.2866
     18  N         18.3280   -0.9260   30.1720 N.3   167  TYR167     -0.1241
     19  CA        17.2140   -0.2810   29.5070 C.3   167  TYR167      0.1605
     20  C         17.4530    1.2070   29.2710 C.2   167  TYR167      0.2264
     21  O         18.0940    1.8810   30.0650 O.2   167  TYR167     -0.2867
     22  CB        15.9300   -0.4720   30.2960 C.3   167  TYR167      0.0534
     23  CG        14.7360    0.0510   29.5470 C.ar  167  TYR167     -0.0201
     24  CD1       14.3230   -0.5360   28.3540 C.ar  167  TYR167     -0.0009
     25  CD2       14.0240    1.1350   30.0410 C.ar  167  TYR167     -0.0009
     26  CE1       13.2010   -0.0520   27.6910 C.ar  167  TYR167      0.0417
     27  CE2       12.9180    1.6260   29.3850 C.ar  167  TYR167      0.0417
     28  CZ        12.5080    1.0210   28.2120 C.ar  167  TYR167      0.1957
     29  OH        11.4180    1.4770   27.4980 O.3   167  TYR167     -0.2866
     30  N         15.1270    4.5070   26.9070 N.3   169  ASP169     -0.1239
     31  CA        14.1310    4.8070   25.8950 C.3   169  ASP169      0.1674
     32  C         14.0110    6.3050   25.7230 C.2   169  ASP169      0.2266
     33  O         14.7920    7.0710   26.2940 O.2   169  ASP169     -0.2867
     34  CB        12.8020    4.0830   26.1250 C.3   169  ASP169      0.1410
     35  CG        11.9740    4.6580   27.2530 C.2   169  ASP169      0.3668
     36  OD1       12.1290    5.8490   27.5850 O.co2 169  ASP169     -0.2456
     37  OD2       11.1090    3.9670   27.8570 O.co2 169  ASP169     -0.2456
     38  N         11.9670    8.4210   26.5380 N.3   171  GLN171     -0.1245
     39  CA        11.3220    9.1800   27.5990 C.3   171  GLN171      0.1566
     40  C         12.3280    9.4780   28.7030 C.2   171  GLN171      0.2260
     41  O         11.9810   10.1350   29.6760 O.2   171  GLN171     -0.2867
     42  CB        10.1620    8.3800   28.1870 C.3   171  GLN171      0.0367
     43  CG         9.2220    7.7640   27.1290 C.3   171  GLN171      0.0905
     44  CD         8.5250    8.8480   26.3450 C.2   171  GLN171      0.2608
     45  OE1        7.8110    9.6550   26.9340 O.2   171  GLN171     -0.2717
     46  NE2        8.7380    8.8850   25.0340 N.am  171  GLN171     -0.0878
     47  N         14.3470    5.3810   20.0880 N.3   206  GLU206     -0.1245
     48  CA        13.3590    4.3320   20.3030 C.3   206  GLU206      0.1567
     49  C         12.4940    4.2940   19.0430 C.2   206  GLU206      0.2260
     50  O         12.1140    5.3400   18.5150 O.2   206  GLU206     -0.2867
     51  CB        12.5290    4.7070   21.5350 C.3   206  GLU206      0.0388
     52  CG        11.3640    3.8020   21.8170 C.3   206  GLU206      0.1160
     53  CD        10.5190    4.2820   22.9850 C.2   206  GLU206      0.3649
     54  OE1       10.8850    5.2710   23.6740 O.co2 206  GLU206     -0.2457
     55  OE2        9.4580    3.6650   23.1900 O.co2 206  GLU206     -0.2457
     56  N          8.9540    2.7950   18.1300 N.3   208  ASP208     -0.1239
     57  CA         7.7840    2.0860   18.6020 C.3   208  ASP208      0.1674
     58  C          7.0550    1.4670   17.4450 C.2   208  ASP208      0.2266
     59  O          6.2700    2.1370   16.7700 O.2   208  ASP208     -0.2867
     60  CB         6.8810    2.9900   19.4070 C.3   208  ASP208      0.1410
     61  CG         7.5540    3.4760   20.6620 C.2   208  ASP208      0.3668
     62  OD1        8.4330    2.7560   21.1820 O.co2 208  ASP208     -0.2456
     63  OD2        7.3010    4.5820   21.1740 O.co2 208  ASP208     -0.2456
     64  N          2.3610    0.2250   19.6170 N.3   211  GLU211     -0.1245
     65  CA         1.8040    0.5180   20.9310 C.3   211  GLU211      0.1567
     66  C          0.3170    0.4750   20.7190 C.2   211  GLU211      0.2260
     67  O         -0.1700    1.1920   19.8590 O.2   211  GLU211     -0.2867
     68  CB         2.2230    1.9130   21.3710 C.3   211  GLU211      0.0388
     69  CG         3.6650    1.8770   21.8120 C.3   211  GLU211      0.1160
     70  CD         4.1180    3.1880   22.3820 C.2   211  GLU211      0.3649
     71  OE1        4.3690    4.1270   21.5920 O.co2 211  GLU211     -0.2457
     72  OE2        4.2230    3.2520   23.6220 O.co2 211  GLU211     -0.2457
     73  N         11.0120    7.7080   17.6520 N.3   222  HIS222     -0.1241
     74  CA        11.4710    8.7500   18.5740 C.3   222  HIS222      0.1621
     75  C         12.9860    8.9240   18.5360 C.2   222  HIS222      0.2264
     76  O         13.6720    8.2530   19.3010 O.2   222  HIS222     -0.2867
     77  CB        11.1580    8.3100   20.0060 C.3   222  HIS222      0.0745
     78  CG         9.7050    8.1560   20.3310 C.ar  222  HIS222      0.0817
     79  ND1        8.9970    9.1230   21.0120 N.ar  222  HIS222     -0.2268
     80  CD2        8.8670    7.0980   20.2110 C.ar  222  HIS222      0.1154
     81  CE1        7.7710    8.6900   21.2450 C.ar  222  HIS222      0.1986
     82  NE2        7.6680    7.4590   20.7770 N.ar  222  HIS222     -0.2212
     83  N         11.6530   15.6740   28.8460 N.3   239  ARG239     -0.1245
     84  CA        11.0440   15.1850   27.6210 C.3   239  ARG239      0.1563
     85  C         11.0240   16.3180   26.6020 C.2   239  ARG239      0.2260
     86  O         10.6690   17.4640   26.9310 O.2   239  ARG239     -0.2867
     87  CB         9.6260   14.6570   27.8750 C.3   239  ARG239      0.0307
     88  CG         9.5820   13.2450   28.4780 C.3   239  ARG239      0.0489
     89  CD         8.1880   12.6600   28.6230 C.3   239  ARG239      0.2205
     90  NE         7.5810   12.3330   27.3340 N.pl3 239  ARG239     -0.0865
     91  CZ         6.7780   13.1350   26.6570 C.cat 239  ARG239      0.5346
     92  NH1        6.4680   14.3170   27.1700 N.pl3 239  ARG239      0.1354
     93  NH2        6.2710   12.7530   25.4820 N.pl3 239  ARG239      0.1354
     94  N         10.4190   12.9590   22.9680 N.3   246  GLY246     -0.1210
     95  CA         9.5100   12.1810   23.7860 C.3   246  GLY246      0.1956
     96  C          8.1620   11.9540   23.1360 C.2   246  GLY246      0.2611
     97  O          7.5250   10.9520   23.3960 O.2   246  GLY246     -0.2717
     98  N          7.7210   12.8890   22.2930 N.am  247  ASP247     -0.1973
     99  CA         6.4210   12.7660   21.6400 C.3   247  ASP247      0.1709
    100  C          6.4670   11.8000   20.4570 C.2   247  ASP247      0.2293
    101  O          5.5120   11.0710   20.2160 O.2   247  ASP247     -0.2864
    102  CB         5.9490   14.1140   21.0820 C.3   247  ASP247      0.1436
    103  CG         5.6000   15.1320   22.1610 C.2   247  ASP247      0.3671
    104  OD1        5.5300   14.7470   23.3430 O.co2 247  ASP247     -0.2456
    105  OD2        5.3540   16.3400   21.8930 O.co2 247  ASP247     -0.2456
    106  N          1.6120   -2.9430   29.8800 N.3   363  TRP363     -0.1241
    107  CA         1.6870   -1.9650   30.9550 C.3   363  TRP363      0.1605
    108  C          0.4340   -1.1000   31.0340 C.2   363  TRP363      0.2264
    109  O         -0.3210   -0.9980   30.0690 O.2   363  TRP363     -0.2867
    110  CB         2.9240   -1.0650   30.8150 C.3   363  TRP363      0.0550
    111  CG         3.1350   -0.3840   29.4620 C.ar  363  TRP363      0.0003
    112  CD1        3.3890   -0.9880   28.2450 C.ar  363  TRP363      0.0946
    113  CD2        3.1980    1.0310   29.2100 C.ar  363  TRP363      0.0152
    114  NE1        3.5490   -0.0330   27.2660 N.ar  363  TRP363     -0.2442
    115  CE2        3.4360    1.2090   27.8270 C.ar  363  TRP363      0.0810
    116  CE3        3.0390    2.1730   30.0080 C.ar  363  TRP363      0.0012
    117  CZ2        3.5460    2.4710   27.2380 C.ar  363  TRP363      0.0191
    118  CZ3        3.1330    3.4320   29.4120 C.ar  363  TRP363      0.0001
    119  CH2        3.3890    3.5660   28.0440 C.ar  363  TRP363      0.0015
    120  N         -0.4660    3.0930   32.6180 N.3   365  ASP365     -0.1239
    121  CA         0.2490    4.3610   32.5320 C.3   365  ASP365      0.1674
    122  C         -0.1460    5.2490   33.7020 C.2   365  ASP365      0.2266
    123  O         -1.2360    5.8080   33.6890 O.2   365  ASP365     -0.2867
    124  CB        -0.1350    5.0750   31.2290 C.3   365  ASP365      0.1410
    125  CG         0.3990    6.5050   31.1420 C.2   365  ASP365      0.3668
    126  OD1       -0.0440    7.2330   30.2290 O.co2 365  ASP365     -0.2456
    127  OD2        1.2680    7.0040   31.8900 O.co2 365  ASP365     -0.2456
    128  N          1.1150    8.1100   34.5070 N.3   367  ALA367     -0.1231
    129  CA         1.2280    9.5400   34.2320 C.3   367  ALA367      0.1694
    130  C         -0.0160   10.0720   33.5350 C.2   367  ALA367      0.2591
    131  O         -0.6170   11.0890   33.9370 O.2   367  ALA367     -0.2718
    132  CB         2.4780    9.8410   33.4120 C.3   367  ALA367      0.0304
    133  N         -0.4330    9.3590   32.4970 N.am  368  ALA368     -0.1980
    134  CA        -1.5000    9.8750   31.6580 C.3   368  ALA368      0.1597
    135  C         -2.6200    8.8980   31.3610 C.2   368  ALA368      0.2287
    136  O         -3.4240    9.1680   30.4790 O.2   368  ALA368     -0.2864
    137  CB        -0.9220   10.4070   30.3820 C.3   368  ALA368      0.0319
    138  N         -3.2090    9.2860   25.8110 N.3   372  TRP372     -0.1241
    139  CA        -2.4720    9.7080   24.6250 C.3   372  TRP372      0.1605
    140  C         -2.5600    8.6420   23.5370 C.2   372  TRP372      0.2264
    141  O         -2.3900    8.9480   22.3610 O.2   372  TRP372     -0.2867
    142  CB        -1.0190   10.0380   24.9610 C.3   372  TRP372      0.0550
    143  CG        -0.3240    8.9320   25.6660 C.ar  372  TRP372      0.0003
    144  CD1       -0.2010    8.7720   27.0210 C.ar  372  TRP372      0.0946
    145  CD2        0.3090    7.7950   25.0720 C.ar  372  TRP372      0.0152
    146  NE1        0.4850    7.6120   27.2990 N.ar  372  TRP372     -0.2442
    147  CE2        0.8070    6.9940   26.1190 C.ar  372  TRP372      0.0810
    148  CE3        0.5100    7.3710   23.7570 C.ar  372  TRP372      0.0012
    149  CZ2        1.4900    5.7990   25.8850 C.ar  372  TRP372      0.0191
    150  CZ3        1.1900    6.1860   23.5310 C.ar  372  TRP372      0.0001
    151  CH2        1.6630    5.4200   24.5890 C.ar  372  TRP372      0.0015
    152  N         -6.1740   13.7350   24.2740 N.3   377  TYR377     -0.1241
    153  CA        -4.9770   14.1800   24.9560 C.3   377  TYR377      0.1605
    154  C         -4.4500   15.3690   24.1700 C.2   377  TYR377      0.2264
    155  O         -4.5420   15.3610   22.9410 O.2   377  TYR377     -0.2867
    156  CB        -3.9440   13.0180   24.9680 C.3   377  TYR377      0.0534
    157  CG        -2.7100   13.3610   25.7590 C.ar  377  TYR377     -0.0201
    158  CD1       -2.6670   13.1370   27.1370 C.ar  377  TYR377     -0.0009
    159  CD2       -1.6360   13.9990   25.1650 C.ar  377  TYR377     -0.0009
    160  CE1       -1.5630   13.4970   27.8840 C.ar  377  TYR377      0.0417
    161  CE2       -0.5310   14.3800   25.9110 C.ar  377  TYR377      0.0417
    162  CZ        -0.4990   14.1140   27.2650 C.ar  377  TYR377      0.1957
    163  OH         0.5900   14.4720   28.0180 O.3   377  TYR377     -0.2866
    164  N         -7.4520   10.5430   19.9580 N.3   390  ARG390     -0.1245
    165  CA        -6.6420    9.4140   19.4550 C.3   390  ARG390      0.1563
    166  C         -7.3770    8.0540   19.4720 C.2   390  ARG390      0.2260
    167  O         -6.9300    7.0250   18.9040 O.2   390  ARG390     -0.2867
    168  CB        -5.3680    9.3630   20.2900 C.3   390  ARG390      0.0307
    169  CG        -4.4890   10.6130   20.1880 C.3   390  ARG390      0.0489
    170  CD        -4.4990   11.5130   21.4560 C.3   390  ARG390      0.2205
    171  NE        -3.7130   12.7390   21.3200 N.pl3 390  ARG390     -0.0865
    172  CZ        -2.4010   12.8260   21.3460 C.cat 390  ARG390      0.5346
    173  NH1       -1.6560   11.7260   21.5300 N.pl3 390  ARG390      0.1354
    174  NH2       -1.8270   14.0190   21.2290 N.pl3 390  ARG390      0.1354
@<TRIPOS>BOND
     1    59    58    2
     2    58    57    1
     3    73    74    1
     4    56    57    1
     5    50    49    2
     6    75    74    1
     7    75    76    2
     8    74    77    1
     9    57    60    1
    10   167   166    2
    11    49    48    1
    12    60    61    1
    13   165   166    1
    14   165   164    1
    15   165   168    1
    16    64    65    1
    17    67    66    2
    18    77    78    1
    19    47    48    1
    20   169   168    1
    21   169   170    1
    22    80    78   ar
    23    80    82   ar
    24   101   100    2
    25     7     8    1
    26     7     6    1
    27     7    10    1
    28     8     9    2
    29    48    51    1
    30    78    79   ar
    31   100    99    1
    32    61    63   ar
    33    61    62   ar
    34    66    65    1
    35    82    81   ar
    36    65    68    1
    37    79    81   ar
    38    10    11    1
    39   102    99    1
    40   102   103    1
    41   174   172    1
    42   171   172    2
    43   171   170    1
    44   172   173    1
    45    68    69    1
    46    51    52    1
    47    71    70   ar
    48    99    98    1
    49    69    70    1
    50    52    53    1
    51   105   103   ar
    52   103   104   ar
    53    98    96   am
    54   141   140    2
    55    70    72   ar
    56    11    13   ar
    57    11    12   ar
    58     3     2    1
    59     3     4    2
    60   155   154    2
    61    94    95    1
    62    53    55   ar
    63    53    54   ar
    64    13    15   ar
    65    96    97    2
    66    96    95    1
    67     2     5    1
    68     2     1    1
    69    12    14   ar
    70   150   148   ar
    71   150   151   ar
    72   140   139    1
    73   148   145   ar
    74   154   153    1
    75   152   153    1
    76    15    16   ar
    77   151   149   ar
    78   139   142    1
    79   139   138    1
    80    14    16   ar
    81   153   156    1
    82   142   143    1
    83   156   157    1
    84    46    44   am
    85   145   143   ar
    86   145   147   ar
    87   159   157   ar
    88   159   161   ar
    89    16    17    1
    90    93    91    1
    91   143   144   ar
    92    32    31    1
    93    32    33    2
    94   157   158   ar
    95   149   147   ar
    96    31    34    1
    97    31    30    1
    98   161   162   ar
    99   147   146   ar
   100    34    35    1
   101    44    45    2
   102    44    43    1
   103    38    39    1
   104    85    86    2
   105    85    84    1
   106    91    92    1
   107    91    90    2
   108   144   146   ar
   109    43    42    1
   110   158   160   ar
   111   117   115   ar
   112   117   119   ar
   113    35    36   ar
   114    35    37   ar
   115   162   160   ar
   116   162   163    1
   117   114   115   ar
   118   114   112   ar
   119    90    89    1
   120    29    28    1
   121    39    42    1
   122    39    40    1
   123    84    87    1
   124    84    83    1
   125    26    28   ar
   126    26    24   ar
   127   115   113   ar
   128    87    88    1
   129   119   118   ar
   130    28    27   ar
   131   112   111   ar
   132    24    23   ar
   133    88    89    1
   134    40    41    2
   135   113   111   ar
   136   113   116   ar
   137    20    19    1
   138    20    21    2
   139    27    25   ar
   140   118   116   ar
   141   111   110    1
   142    19    18    1
   143    19    22    1
   144    23    25   ar
   145    23    22    1
   146   106   107    1
   147   109   108    2
   148   126   125   ar
   149   137   134    1
   150   136   135    2
   151   110   107    1
   152   107   108    1
   153   125   124    1
   154   125   127   ar
   155   124   121    1
   156   135   134    1
   157   134   133    1
   158   133   130   am
   159   121   120    1
   160   121   122    1
   161   132   129    1
   162   130   131    2
   163   130   129    1
   164   123   122    2
   165   129   128    1
