@<TRIPOS>MOLECULE
tmp/1h48D00.pdb
 113 112 0 0 0
SMALL
GASTEIGER

@<TRIPOS>ATOM
      1  N         37.5930  -51.0000   84.9720 N.3    10  ASP10      -0.1225
      2  CA        37.2600  -49.7480   85.6240 C.3    10  ASP10       0.1805
      3  C         36.2880  -48.9510   84.7800 C.2    10  ASP10       0.2598
      4  O         36.1700  -49.1780   83.5700 O.2    10  ASP10      -0.2718
      5  CB        38.5360  -48.9430   85.8950 C.3    10  ASP10       0.1424
      6  CG        38.2920  -47.7440   86.7580 C.2    10  ASP10       0.3668
      7  OD1       37.3600  -47.7650   87.5890 O.co2  10  ASP10      -0.2456
      8  OD2       38.9640  -46.7060   86.6460 O.co2  10  ASP10      -0.2456
      9  N         35.5680  -48.0400   85.4250 N.am   11  VAL11      -0.1966
     10  CA        34.5760  -47.2240   84.7480 C.3    11  VAL11       0.1727
     11  C         34.5960  -45.8190   85.3460 C.2    11  VAL11       0.2616
     12  O         34.6710  -45.6600   86.5700 O.2    11  VAL11      -0.2715
     13  CB        33.1480  -47.8210   84.9130 C.3    11  VAL11       0.0290
     14  CG1       32.0880  -46.8510   84.4170 C.3    11  VAL11       0.0023
     15  CG2       33.0170  -49.1510   84.1660 C.3    11  VAL11       0.0023
     16  N         34.5140  -44.8090   84.4900 N.am   12  HIS12      -0.1973
     17  CA        34.1930  -43.4620   84.9260 C.3    12  HIS12       0.1656
     18  C         33.0710  -42.8850   84.0950 C.2    12  HIS12       0.2291
     19  O         32.9350  -43.2040   82.9010 O.2    12  HIS12      -0.2864
     20  CB        35.4210  -42.5590   84.8370 C.3    12  HIS12       0.0771
     21  CG        36.4560  -42.8620   85.8730 C.ar   12  HIS12       0.0820
     22  ND1       36.6290  -42.0850   86.9970 N.ar   12  HIS12      -0.2267
     23  CD2       37.3570  -43.8660   85.9680 C.ar   12  HIS12       0.1154
     24  CE1       37.6020  -42.5940   87.7340 C.ar   12  HIS12       0.1986
     25  NE2       38.0610  -43.6750   87.1320 N.ar   12  HIS12      -0.2212
     26  N         36.1560  -37.8630   88.3050 N.3    35  ALA35      -0.1231
     27  CA        37.1240  -38.7120   88.9820 C.3    35  ALA35       0.1694
     28  C         37.6780  -38.0720   90.2570 C.2    35  ALA35       0.2592
     29  O         37.5310  -36.8710   90.4570 O.2    35  ALA35      -0.2718
     30  CB        38.2590  -39.0360   88.0300 C.3    35  ALA35       0.0304
     31  N         38.3180  -38.8840   91.1040 N.am   36  HIS36      -0.1962
     32  CA        39.1350  -38.3730   92.2060 C.3    36  HIS36       0.1787
     33  C         40.4920  -37.9040   91.6650 C.2    36  HIS36       0.2620
     34  O         40.9030  -36.7520   91.8930 O.2    36  HIS36      -0.2715
     35  CB        39.3210  -39.4450   93.2860 C.3    36  HIS36       0.0785
     36  CG        39.9690  -38.9390   94.5380 C.ar   36  HIS36       0.0821
     37  ND1       41.2610  -39.2660   94.8920 N.ar   36  HIS36      -0.2267
     38  CD2       39.5030  -38.1320   95.5200 C.ar   36  HIS36       0.1154
     39  CE1       41.5630  -38.6820   96.0370 C.ar   36  HIS36       0.1986
     40  NE2       40.5140  -37.9870   96.4390 N.ar   36  HIS36      -0.2212
     41  N         41.1810  -38.8040   90.9480 N.am   37  SER37      -0.1950
     42  CA        42.4050  -38.4650   90.2250 C.3    37  SER37       0.1924
     43  C         42.0670  -37.7520   88.8990 C.2    37  SER37       0.2314
     44  O         41.0510  -37.0690   88.8020 O.2    37  SER37      -0.2863
     45  CB        43.2840  -39.7260   90.0200 C.3    37  SER37       0.2116
     46  OG        42.6610  -40.6850   89.1550 O.3    37  SER37      -0.2180
     47  N         43.9660  -46.9610   85.2220 N.3    44  HIS44      -0.1241
     48  CA        43.3960  -47.6060   86.4060 C.3    44  HIS44       0.1621
     49  C         43.1760  -49.1060   86.1890 C.2    44  HIS44       0.2264
     50  O         43.7180  -49.9230   86.9430 O.2    44  HIS44      -0.2867
     51  CB        42.0940  -46.9430   86.8430 C.3    44  HIS44       0.0745
     52  CG        42.2610  -45.5250   87.2800 C.ar   44  HIS44       0.0817
     53  ND1       41.1900  -44.7100   87.5820 N.ar   44  HIS44      -0.2268
     54  CD2       43.3730  -44.7610   87.4320 C.ar   44  HIS44       0.1154
     55  CE1       41.6310  -43.5010   87.8860 C.ar   44  HIS44       0.1986
     56  NE2       42.9490  -43.5090   87.8120 N.ar   44  HIS44      -0.2212
     57  N         44.0240  -50.9310   93.2380 N.3    59  ILE59      -0.1231
     58  CA        44.5180  -49.5560   93.3970 C.3    59  ILE59       0.1692
     59  C         43.9360  -48.9330   94.6410 C.2    59  ILE59       0.2592
     60  O         44.6620  -48.3300   95.4160 O.2    59  ILE59      -0.2718
     61  CB        44.2170  -48.6470   92.1740 C.3    59  ILE59       0.0266
     62  CG1       42.9280  -49.0670   91.4480 C.3    59  ILE59       0.0019
     63  CG2       45.4130  -48.5910   91.2590 C.3    59  ILE59       0.0020
     64  CD1       42.5350  -48.1670   90.2900 C.3    59  ILE59       0.0001
     65  N         42.6330  -49.1140   94.8430 N.am   60  GLY60      -0.1957
     66  CA        41.9480  -48.5850   96.0080 C.3    60  GLY60       0.1869
     67  C         42.4800  -49.0870   97.3400 C.2    60  GLY60       0.2309
     68  O         42.0160  -48.6380   98.3880 O.2    60  GLY60      -0.2863
     69  N         46.1960  -46.7100   96.7730 N.3    63  PHE63      -0.1228
     70  CA        45.8910  -45.2980   96.5600 C.3    63  PHE63       0.1721
     71  C         44.3900  -44.9980   96.7080 C.2    63  PHE63       0.2437
     72  O         43.7080  -44.7050   95.7190 O.2    63  PHE63      -0.2733
     73  CB        46.4170  -44.8230   95.1950 C.3    63  PHE63       0.0547
     74  CG        47.6510  -45.5570   94.7260 C.ar   63  PHE63      -0.0202
     75  CD1       48.8910  -45.3270   95.3280 C.ar   63  PHE63      -0.0042
     76  CD2       47.5720  -46.4930   93.6880 C.ar   63  PHE63      -0.0042
     77  CE1       50.0340  -46.0170   94.9070 C.ar   63  PHE63      -0.0003
     78  CE2       48.7070  -47.1770   93.2570 C.ar   63  PHE63      -0.0003
     79  CZ        49.9400  -46.9390   93.8650 C.ar   63  PHE63      -0.0000
     80  N         43.8850  -45.0450   97.9460 N.am   64  PRO64      -0.2718
     81  CA        42.4580  -44.8120   98.2150 C.3    64  PRO64       0.1535
     82  C         41.9650  -43.4360   97.7520 C.2    64  PRO64       0.2598
     83  O         42.6930  -42.4440   97.8760 O.2    64  PRO64      -0.2715
     84  CB        42.3680  -44.9110   99.7480 C.3    64  PRO64       0.0310
     85  CG        43.5870  -45.6670  100.1730 C.3    64  PRO64       0.0237
     86  CD        44.6440  -45.3090   99.1870 C.3    64  PRO64       0.0939
     87  N         40.7430  -43.3810   97.2230 N.am   65  ASP65      -0.1972
     88  CA        40.1150  -42.0980   96.8830 C.3    65  ASP65       0.1709
     89  C         39.6600  -41.3240   98.1440 C.2    65  ASP65       0.2293
     90  O         39.2030  -40.1740   98.0630 O.2    65  ASP65      -0.2864
     91  CB        38.9820  -42.2680   95.8440 C.3    65  ASP65       0.1436
     92  CG        37.9110  -43.2660   96.2800 C.2    65  ASP65       0.3671
     93  OD1       37.7750  -44.3220   95.6180 O.co2  65  ASP65      -0.2456
     94  OD2       37.1500  -43.0780   97.2570 O.co2  65  ASP65      -0.2456
     95  N         46.2090  -38.2470   96.7380 N.3    70  PHE70      -0.1241
     96  CA        45.9930  -38.7560   95.3820 C.3    70  PHE70       0.1605
     97  C         44.9100  -37.9990   94.6110 C.2    70  PHE70       0.2264
     98  O         44.4510  -38.4660   93.5610 O.2    70  PHE70      -0.2867
     99  CB        45.6590  -40.2630   95.4150 C.3    70  PHE70       0.0534
    100  CG        46.5760  -41.0750   96.2960 C.ar   70  PHE70      -0.0203
    101  CD1       46.0750  -41.7330   97.4210 C.ar   70  PHE70      -0.0042
    102  CD2       47.9420  -41.1790   96.0060 C.ar   70  PHE70      -0.0042
    103  CE1       46.9250  -42.4830   98.2490 C.ar   70  PHE70      -0.0003
    104  CE2       48.8060  -41.9310   96.8260 C.ar   70  PHE70      -0.0003
    105  CZ        48.2980  -42.5850   97.9480 C.ar   70  PHE70      -0.0000
    106  N         50.7420  -43.1870   89.8540 N.3    78  LEU78      -0.1245
    107  CA        50.1960  -44.3850   90.4940 C.3    78  LEU78       0.1561
    108  C         50.6280  -45.6640   89.7890 C.2    78  LEU78       0.2260
    109  O         51.0460  -46.6330   90.4350 O.2    78  LEU78      -0.2867
    110  CB        48.6790  -44.3280   90.5700 C.3    78  LEU78       0.0270
    111  CG        48.0540  -43.0710   91.1740 C.3    78  LEU78       0.0019
    112  CD1       46.5470  -43.2410   91.2730 C.3    78  LEU78       0.0001
    113  CD2       48.6300  -42.8070   92.5530 C.3    78  LEU78       0.0001
@<TRIPOS>BOND
     1    19    18    2
     2     4     3    2
     3    18    17    1
     4    15    13    1
     5    14    13    1
     6    16    17    1
     7    16    11   am
     8    10    13    1
     9    10    11    1
    10    10     9    1
    11     3     9   am
    12     3     2    1
    13    20    17    1
    14    20    21    1
    15     1     2    1
    16    47    48    1
    17    11    12    2
    18     2     5    1
    19    21    23   ar
    20    21    22   ar
    21     5     6    1
    22    23    25   ar
    23    49    48    1
    24    49    50    2
    25    48    51    1
    26     8     6   ar
    27     6     7   ar
    28    51    52    1
    29    22    24   ar
    30    25    24   ar
    31    52    54   ar
    32    52    53   ar
    33    54    56   ar
    34    53    55   ar
    35    56    55   ar
    36    30    27    1
    37    26    27    1
    38    44    43    2
    39    43    42    1
    40    27    28    1
    41    46    45    1
    42   108   109    2
    43   108   107    1
    44   106   107    1
    45    45    42    1
    46    42    41    1
    47    28    29    2
    48    28    31   am
    49    64    62    1
    50   107   110    1
    51   110   111    1
    52    41    33   am
    53    31    32    1
    54   111   112    1
    55   111   113    1
    56    63    61    1
    57    62    61    1
    58    33    34    2
    59    33    32    1
    60    61    58    1
    61    32    35    1
    62    57    58    1
    63    78    76   ar
    64    78    79   ar
    65    35    36    1
    66    58    59    1
    67    98    97    2
    68    76    74   ar
    69    79    77   ar
    70    36    37   ar
    71    36    38   ar
    72    97    96    1
    73    59    65   am
    74    59    60    2
    75    74    73    1
    76    74    75   ar
    77    65    66    1
    78    37    39   ar
    79    77    75   ar
    80    73    70    1
    81    96    99    1
    82    96    95    1
    83    99   100    1
    84    38    40   ar
    85    93    92   ar
    86    72    71    2
    87    91    92    1
    88    91    88    1
    89   102   100   ar
    90   102   104   ar
    91    66    67    1
    92    39    40   ar
    93    92    94   ar
    94   100   101   ar
    95    70    71    1
    96    70    69    1
    97    71    80   am
    98   104   105   ar
    99    88    87    1
   100    88    89    1
   101    87    82   am
   102    67    68    2
   103   101   103   ar
   104    82    83    2
   105    82    81    1
   106    80    81    1
   107    80    86    1
   108   105   103   ar
   109    90    89    2
   110    81    84    1
   111    86    85    1
   112    84    85    1
