@<TRIPOS>MOLECULE
tmp/1h49A00.pdb
 144 143 0 0 0
SMALL
GASTEIGER

@<TRIPOS>ATOM
      1  N         17.7680  111.1180   87.9580 N.3   132  TRP132     -0.1241
      2  CA        18.6540  109.9670   88.2060 C.3   132  TRP132      0.1605
      3  C         19.1450  109.8390   89.6500 C.2   132  TRP132      0.2264
      4  O         19.9180  108.9350   89.9480 O.2   132  TRP132     -0.2867
      5  CB        19.8810  109.9420   87.3030 C.3   132  TRP132      0.0550
      6  CG        19.6920  110.1000   85.8150 C.ar  132  TRP132      0.0003
      7  CD1       18.5270  110.1980   85.1060 C.ar  132  TRP132      0.0946
      8  CD2       20.7440  110.1710   84.8580 C.ar  132  TRP132      0.0152
      9  NE1       18.8060  110.3310   83.7650 N.ar  132  TRP132     -0.2442
     10  CE2       20.1590  110.3250   83.5910 C.ar  132  TRP132      0.0810
     11  CE3       22.1360  110.1410   84.9480 C.ar  132  TRP132      0.0012
     12  CZ2       20.9120  110.4440   82.4360 C.ar  132  TRP132      0.0191
     13  CZ3       22.8750  110.2630   83.8050 C.ar  132  TRP132      0.0001
     14  CH2       22.2620  110.4150   82.5610 C.ar  132  TRP132      0.0015
     15  N         15.7130  111.7760   80.3600 N.3   180  ASP180     -0.1239
     16  CA        16.7040  110.8140   79.8550 C.3   180  ASP180      0.1674
     17  C         16.4450  109.3840   80.3850 C.2   180  ASP180      0.2266
     18  O         17.3690  108.7040   80.8430 O.2   180  ASP180     -0.2867
     19  CB        18.1110  111.2660   80.2980 C.3   180  ASP180      0.1410
     20  CG        18.9740  111.7940   79.1760 C.2   180  ASP180      0.3668
     21  OD1       18.4970  112.6250   78.3620 O.co2 180  ASP180     -0.2456
     22  OD2       20.1890  111.4890   79.0980 O.co2 180  ASP180     -0.2456
     23  N         15.8990  106.5290   78.8180 N.3   182  GLN182     -0.1231
     24  CA        16.5910  105.4770   78.0890 C.3   182  GLN182      0.1698
     25  C         18.0550  105.4200   78.5050 C.2   182  GLN182      0.2592
     26  O         18.6400  104.3320   78.6420 O.2   182  GLN182     -0.2718
     27  CB        16.4350  105.6780   76.5790 C.3   182  GLN182      0.0381
     28  CG        16.9130  104.5220   75.6900 C.3   182  GLN182      0.0905
     29  CD        18.4240  104.4830   75.4600 C.2   182  GLN182      0.2608
     30  OE1       19.0060  103.4040   75.2940 O.2   182  GLN182     -0.2717
     31  NE2       19.0580  105.6500   75.4440 N.am  182  GLN182     -0.0878
     32  N         18.6610  106.5780   78.7260 N.am  183  THR183     -0.1953
     33  CA        20.0610  106.6120   79.1400 C.3   183  THR183      0.1897
     34  C         20.1990  106.1180   80.5660 C.2   183  THR183      0.2313
     35  O         21.1080  105.3560   80.8710 O.2   183  THR183     -0.2863
     36  CB        20.6200  108.0170   78.9990 C.3   183  THR183      0.1794
     37  OG1       20.8210  108.3250   77.6130 O.3   183  THR183     -0.2208
     38  CG2       21.9950  108.1490   79.6350 C.3   183  THR183      0.0378
     39  N         22.3010  102.7320   80.7450 N.3   187  VAL187     -0.1245
     40  CA        23.6690  102.9920   81.1680 C.3   187  VAL187      0.1561
     41  C         23.8810  102.6060   82.6480 C.2   187  VAL187      0.2260
     42  O         24.9730  102.2050   83.0300 O.2   187  VAL187     -0.2867
     43  CB        24.0820  104.4760   80.8740 C.3   187  VAL187      0.0252
     44  CG1       25.5180  104.6920   81.2060 C.3   187  VAL187      0.0019
     45  CG2       23.8860  104.7940   79.4010 C.3   187  VAL187      0.0019
     46  N         27.7890  101.7160   83.5350 N.3   193  VAL193     -0.1231
     47  CA        28.7990  102.7570   83.7650 C.3   193  VAL193      0.1692
     48  C         28.2850  103.8430   84.7200 C.2   193  VAL193      0.2592
     49  O         29.0730  104.5570   85.3220 O.2   193  VAL193     -0.2718
     50  CB        29.4000  103.3450   82.4580 C.3   193  VAL193      0.0266
     51  CG1       29.8770  102.2540   81.5420 C.3   193  VAL193      0.0020
     52  CG2       28.4340  104.1760   81.7270 C.3   193  VAL193      0.0020
     53  N         26.9680  103.9250   84.8840 N.am  194  PHE194     -0.1976
     54  CA        26.3310  104.8840   85.7830 C.3   194  PHE194      0.1639
     55  C         25.8210  104.2030   87.0620 C.2   194  PHE194      0.2290
     56  O         25.5410  103.0050   87.0780 O.2   194  PHE194     -0.2864
     57  CB        25.1590  105.5660   85.0770 C.3   194  PHE194      0.0560
     58  CG        25.5600  106.5410   83.9740 C.ar  194  PHE194     -0.0200
     59  CD1       26.8880  106.8170   83.6680 C.ar  194  PHE194     -0.0042
     60  CD2       24.5770  107.1790   83.2290 C.ar  194  PHE194     -0.0042
     61  CE1       27.2180  107.7090   82.6530 C.ar  194  PHE194     -0.0003
     62  CE2       24.9240  108.0790   82.2040 C.ar  194  PHE194     -0.0003
     63  CZ        26.2200  108.3340   81.9210 C.ar  194  PHE194     -0.0000
     64  N         15.7820  111.1270   75.9530 N.3   250  ASP250     -0.1239
     65  CA        16.9980  111.2100   75.1500 C.3   250  ASP250      0.1674
     66  C         16.8220  110.4050   73.8710 C.2   250  ASP250      0.2266
     67  O         16.3090  109.3010   73.8920 O.2   250  ASP250     -0.2867
     68  CB        18.2340  110.7080   75.8800 C.3   250  ASP250      0.1410
     69  CG        18.0730  109.3250   76.3590 C.2   250  ASP250      0.3668
     70  OD1       18.6910  108.4070   75.7620 O.co2 250  ASP250     -0.2456
     71  OD2       17.2900  109.0560   77.2810 O.co2 250  ASP250     -0.2456
     72  N         19.0250  109.7540   70.0470 N.3   252  MET252     -0.1245
     73  CA        19.9820  109.8900   68.9750 C.3   252  MET252      0.1570
     74  C         19.2090  109.6520   67.6690 C.2   252  MET252      0.2261
     75  O         18.5250  108.6530   67.5230 O.2   252  MET252     -0.2867
     76  CB        21.0660  108.8090   69.1390 C.3   252  MET252      0.0387
     77  CG        22.4380  109.3230   69.2850 C.3   252  MET252      0.0595
     78  SD        23.6230  108.0320   69.7370 S.3   252  MET252     -0.1393
     79  CE        24.2620  108.7050   71.1440 C.3   252  MET252      0.0692
     80  N         21.5380  115.4050   70.8130 N.3   322  TYR322     -0.1241
     81  CA        22.9420  115.7570   70.6950 C.3   322  TYR322      0.1605
     82  C         23.5600  115.3240   69.3610 C.2   322  TYR322      0.2264
     83  O         24.3870  116.0220   68.8030 O.2   322  TYR322     -0.2867
     84  CB        23.7310  115.1280   71.8280 C.3   322  TYR322      0.0534
     85  CG        23.4060  115.6740   73.1940 C.ar  322  TYR322     -0.0201
     86  CD1       22.3280  115.1770   73.9280 C.ar  322  TYR322     -0.0009
     87  CD2       24.1690  116.6990   73.7520 C.ar  322  TYR322     -0.0009
     88  CE1       22.0330  115.6960   75.1700 C.ar  322  TYR322      0.0417
     89  CE2       23.8660  117.2280   74.9950 C.ar  322  TYR322      0.0417
     90  CZ        22.8030  116.7160   75.6990 C.ar  322  TYR322      0.1957
     91  OH        22.5170  117.2100   76.9540 O.3   322  TYR322     -0.2866
     92  N         31.6520  110.8640   71.6850 N.3   367  TRP367     -0.1241
     93  CA        30.4110  110.4280   71.0150 C.3   367  TRP367      0.1605
     94  C         29.5560  111.4890   70.2780 C.2   367  TRP367      0.2264
     95  O         28.6600  111.1210   69.5010 O.2   367  TRP367     -0.2867
     96  CB        29.5300  109.7120   72.0330 C.3   367  TRP367      0.0550
     97  CG        29.1060  110.6120   73.0990 C.ar  367  TRP367      0.0003
     98  CD1       29.8420  111.0110   74.1630 C.ar  367  TRP367      0.0946
     99  CD2       27.8390  111.2730   73.2110 C.ar  367  TRP367      0.0152
    100  NE1       29.1160  111.8760   74.9420 N.ar  367  TRP367     -0.2442
    101  CE2       27.8760  112.0460   74.3870 C.ar  367  TRP367      0.0810
    102  CE3       26.6700  111.2780   72.4410 C.ar  367  TRP367      0.0012
    103  CZ2       26.7970  112.8230   74.8130 C.ar  367  TRP367      0.0191
    104  CZ3       25.5960  112.0530   72.8670 C.ar  367  TRP367      0.0001
    105  CH2       25.6760  112.8180   74.0420 C.ar  367  TRP367      0.0015
    106  N         29.7840  115.6420   84.8500 N.3   453  GLU453     -0.1231
    107  CA        29.1820  114.8670   83.7590 C.3   453  GLU453      0.1699
    108  C         29.2610  113.3430   84.0040 C.2   453  GLU453      0.2592
    109  O         29.8360  112.5910   83.2150 O.2   453  GLU453     -0.2718
    110  CB        29.8500  115.2520   82.4300 C.3   453  GLU453      0.0402
    111  CG        29.2540  114.6490   81.1560 C.3   453  GLU453      0.1161
    112  CD        27.7680  114.8950   80.9970 C.2   453  GLU453      0.3649
    113  OE1       27.2450  115.8850   81.5520 O.co2 453  GLU453     -0.2457
    114  OE2       27.0960  114.0810   80.3070 O.co2 453  GLU453     -0.2457
    115  N         28.6770  112.9150   85.1230 N.am  454  TRP454     -0.1962
    116  CA        28.5010  111.5070   85.4300 C.3   454  TRP454      0.1771
    117  C         29.8230  110.7290   85.3340 C.2   454  TRP454      0.2620
    118  O         30.7700  111.0920   86.0410 O.2   454  TRP454     -0.2715
    119  CB        27.4050  110.9490   84.5370 C.3   454  TRP454      0.0590
    120  CG        26.1650  111.7790   84.5440 C.ar  454  TRP454      0.0006
    121  CD1       25.6290  112.4110   83.4830 C.ar  454  TRP454      0.0946
    122  CD2       25.3050  112.0700   85.6570 C.ar  454  TRP454      0.0152
    123  NE1       24.4830  113.0720   83.8440 N.ar  454  TRP454     -0.2442
    124  CE2       24.2470  112.8630   85.1690 C.ar  454  TRP454      0.0810
    125  CE3       25.2870  111.6930   86.9980 C.ar  454  TRP454      0.0012
    126  CZ2       23.2120  113.3180   85.9730 C.ar  454  TRP454      0.0191
    127  CZ3       24.2600  112.1450   87.8050 C.ar  454  TRP454      0.0001
    128  CH2       23.2310  112.9460   87.2910 C.ar  454  TRP454      0.0015
    129  N         29.9180  109.7040   84.4780 N.am  455  PHE455     -0.1960
    130  CA        31.1700  108.9370   84.3480 C.3   455  PHE455      0.1771
    131  C         32.3410  109.8410   83.9690 C.2   455  PHE455      0.2619
    132  O         33.4440  109.7000   84.4940 O.2   455  PHE455     -0.2715
    133  CB        31.0400  107.8100   83.3120 C.3   455  PHE455      0.0574
    134  CG        32.3450  107.1170   83.0070 C.ar  455  PHE455     -0.0200
    135  CD1       32.9840  107.2960   81.7930 C.ar  455  PHE455     -0.0042
    136  CD2       32.9480  106.2990   83.9550 C.ar  455  PHE455     -0.0042
    137  CE1       34.1920  106.6750   81.5210 C.ar  455  PHE455     -0.0003
    138  CE2       34.1730  105.6680   83.6930 C.ar  455  PHE455     -0.0003
    139  CZ        34.7880  105.8550   82.4710 C.ar  455  PHE455     -0.0000
    140  N         32.0970  110.7660   83.0550 N.am  456  ALA456     -0.1977
    141  CA        33.1470  111.6410   82.5450 C.3   456  ALA456      0.1597
    142  C         33.6680  112.5830   83.6340 C.2   456  ALA456      0.2287
    143  O         34.7540  113.1220   83.5270 O.2   456  ALA456     -0.2864
    144  CB        32.6210  112.4340   81.3350 C.3   456  ALA456      0.0319
@<TRIPOS>BOND
     1    75    74    2
     2    74    73    1
     3    83    82    2
     4    73    76    1
     5    73    72    1
     6    76    77    1
     7    77    78    1
     8    82    81    1
     9    95    94    2
    10    78    79    1
    11    94    93    1
    12    81    80    1
    13    81    84    1
    14    93    92    1
    15    93    96    1
    16    84    85    1
    17    96    97    1
    18   102   104   ar
    19   102    99   ar
    20   104   105   ar
    21    97    99   ar
    22    97    98   ar
    23    85    87   ar
    24    85    86   ar
    25    99   101   ar
    26    87    89   ar
    27    66    67    2
    28    66    65    1
    29    86    88   ar
    30   105   103   ar
    31    98   100   ar
    32   101   103   ar
    33   101   100   ar
    34    89    90   ar
    35    65    68    1
    36    65    64    1
    37    88    90   ar
    38    30    29    2
    39    31    29   am
    40    29    28    1
    41    28    27    1
    42    90    91    1
    43    70    69   ar
    44    68    69    1
    45    69    71   ar
    46    27    24    1
    47    37    36    1
    48    24    25    1
    49    24    23    1
    50    21    20   ar
    51    25    26    2
    52    25    32   am
    53    32    33    1
    54    36    33    1
    55    36    38    1
    56    22    20   ar
    57    33    34    1
    58    20    19    1
    59    45    43    1
    60    16    19    1
    61    16    15    1
    62    16    17    1
    63   114   112   ar
    64    17    18    2
    65    34    35    2
    66    39    40    1
    67    43    40    1
    68    43    44    1
    69   112   111    1
    70   112   113   ar
    71   111   110    1
    72    40    41    1
    73   144   141    1
    74   137   135   ar
    75   137   139   ar
    76    51    50    1
    77    52    50    1
    78   135   134   ar
    79    63    62   ar
    80    63    61   ar
    81    62    60   ar
    82   110   107    1
    83    12    14   ar
    84    12    10   ar
    85    50    47    1
    86   139   138   ar
    87   141   140    1
    88   141   142    1
    89    14    13   ar
    90    41    42    2
    91    61    59   ar
    92   134   133    1
    93   134   136   ar
    94   140   131   am
    95   109   108    2
    96    60    58   ar
    97   133   130    1
    98   121   123   ar
    99   121   120   ar
   100   143   142    2
   101    46    47    1
   102    10     9   ar
   103    10     8   ar
   104    59    58   ar
   105   138   136   ar
   106   107   108    1
   107   107   106    1
   108    47    48    1
   109     9     7   ar
   110    13    11   ar
   111   123   124   ar
   112   131   130    1
   113   131   132    2
   114    58    57    1
   115   108   115   am
   116   130   129    1
   117   129   117   am
   118   119   120    1
   119   119   116    1
   120   120   122   ar
   121    48    53   am
   122    48    49    2
   123     8    11   ar
   124     8     6   ar
   125    53    54    1
   126    57    54    1
   127     7     6   ar
   128   115   116    1
   129   124   122   ar
   130   124   126   ar
   131   117   116    1
   132   117   118    2
   133   122   125   ar
   134    54    55    1
   135     6     5    1
   136   126   128   ar
   137   125   127   ar
   138    55    56    2
   139   128   127   ar
   140     5     2    1
   141     1     2    1
   142     2     3    1
   143     3     4    2
