@<TRIPOS>MOLECULE
tmp/1h4hB00.pdb
 182 174 0 0 0
SMALL
GASTEIGER

@<TRIPOS>ATOM
      1  N         34.3950    6.7720   32.9560 N.3     5  ASN5       -0.1240
      2  CA        34.9260    5.7230   32.1250 C.3     5  ASN5        0.1653
      3  C         36.4660    5.8770   31.9140 C.2     5  ASN5        0.2266
      4  O         36.8720    6.9350   31.5500 O.2     5  ASN5       -0.2867
      5  CB        34.1990    5.5540   30.7950 C.3     5  ASN5        0.1155
      6  CG        32.7810    5.0170   31.0000 C.2     5  ASN5        0.2627
      7  OD1       32.3990    4.8110   32.1670 O.2     5  ASN5       -0.2716
      8  ND2       32.0380    4.8160   29.9030 N.am    5  ASN5       -0.0877
      9  N         40.3070    3.4320   31.1450 N.3     7  ILE7       -0.1301
     10  CA        40.9780    2.1480   30.9590 C.3     7  ILE7        0.1246
     11  C         42.4810    2.4260   31.1680 C.3     7  ILE7        0.2009
     12  O         42.8540    3.3300   30.4070 O.3     7  ILE7       -0.2188
     13  CB        40.7380    1.6630   29.5160 C.3     7  ILE7        0.0202
     14  CG1       39.3100    1.1840   29.2570 C.3     7  ILE7        0.0015
     15  CG2       41.6890    0.5240   29.1360 C.3     7  ILE7        0.0016
     16  CD1       38.8910    0.8400   27.8580 C.3     7  ILE7        0.0000
     17  N         39.6410   -1.1990   34.8360 N.3    16  GLU16      -0.1245
     18  CA        38.7380   -0.4950   33.9190 C.3    16  GLU16       0.1567
     19  C         37.4930   -0.0610   34.7260 C.2    16  GLU16       0.2260
     20  O         37.0110   -0.9060   35.5170 O.2    16  GLU16      -0.2867
     21  CB        38.3350   -1.3670   32.7060 C.3    16  GLU16       0.0388
     22  CG        37.2430   -0.6920   31.8810 C.3    16  GLU16       0.1160
     23  CD        37.0340   -1.2050   30.4480 C.2    16  GLU16       0.3649
     24  OE1       37.7770   -2.0910   29.9780 O.co2  16  GLU16      -0.2457
     25  OE2       36.1720   -0.6150   29.7410 O.co2  16  GLU16      -0.2457
     26  N         33.6470    1.2850   33.8310 N.3    18  TRP18      -0.1241
     27  CA        32.7650    1.5420   32.7010 C.3    18  TRP18       0.1605
     28  C         31.3140    1.6740   33.2140 C.2    18  TRP18       0.2264
     29  O         30.9090    0.7650   33.9030 O.2    18  TRP18      -0.2867
     30  CB        32.7750    0.4780   31.5930 C.3    18  TRP18       0.0550
     31  CG        31.8490    0.8320   30.4410 C.ar   18  TRP18       0.0003
     32  CD1       32.2370    1.5360   29.3200 C.ar   18  TRP18       0.0946
     33  CD2       30.4670    0.5060   30.2660 C.ar   18  TRP18       0.0152
     34  NE1       31.1470    1.6930   28.4960 N.ar   18  TRP18      -0.2442
     35  CE2       30.0520    1.0640   29.0530 C.ar   18  TRP18       0.0810
     36  CE3       29.5600   -0.2240   31.0700 C.ar   18  TRP18       0.0012
     37  CZ2       28.7290    0.9960   28.5710 C.ar   18  TRP18       0.0191
     38  CZ3       28.2170   -0.3220   30.6400 C.ar   18  TRP18       0.0001
     39  CH2       27.8710    0.2690   29.4070 C.ar   18  TRP18       0.0015
     40  N         23.9570    0.5590   34.2370 N.3    44  ASN44      -0.1240
     41  CA        24.8930   -0.5620   34.2760 C.3    44  ASN44       0.1653
     42  C         26.3090   -0.0070   34.5850 C.2    44  ASN44       0.2266
     43  O         26.6800    1.0140   33.9730 O.2    44  ASN44      -0.2867
     44  CB        24.9990   -1.3430   32.9780 C.3    44  ASN44       0.1155
     45  CG        25.5460   -2.7440   32.9210 C.2    44  ASN44       0.2627
     46  OD1       25.7780   -3.2460   31.7920 O.2    44  ASN44      -0.2716
     47  ND2       25.7430   -3.5010   34.0580 N.am   44  ASN44      -0.0877
     48  N         30.4440   -1.3720   35.6490 N.3    46  LEU46      -0.1245
     49  CA        31.3780   -2.5030   35.8160 C.3    46  LEU46       0.1561
     50  C         32.6870   -1.9440   36.3890 C.2    46  LEU46       0.2260
     51  O         33.1610   -0.9140   35.8910 O.2    46  LEU46      -0.2867
     52  CB        31.8110   -3.3310   34.5780 C.3    46  LEU46       0.0270
     53  CG        30.6770   -4.1890   33.9980 C.3    46  LEU46       0.0019
     54  CD1       29.7450   -3.3280   33.1230 C.3    46  LEU46       0.0001
     55  CD2       31.2730   -5.3920   33.2390 C.3    46  LEU46       0.0001
     56  N         36.7000   -3.3160   37.4590 N.3    48  ARG48      -0.1241
     57  CA        37.5080   -4.5560   37.4000 C.3    48  ARG48       0.1606
     58  C         39.0100   -4.2900   37.2630 C.2    48  ARG48       0.2264
     59  O         39.5170   -3.3500   36.6700 O.2    48  ARG48      -0.2867
     60  CB        37.0520   -5.3170   36.1430 C.3    48  ARG48       0.0562
     61  CG        37.3100   -4.6310   34.8130 C.2    48  ARG48       0.0159
     62  CD        36.6310   -5.1550   33.6370 C.2    48  ARG48       0.1886
     63  NE        36.6250   -4.9900   32.2430 N.pl3  48  ARG48      -0.0578
     64  CZ        35.8580   -4.4220   31.3420 C.cat  48  ARG48       0.5393
     65  NH1       34.7850   -3.7170   31.5950 N.pl3  48  ARG48       0.1358
     66  NH2       36.1480   -4.6260   30.0580 N.pl3  48  ARG48       0.1358
     67  N         35.2020  -11.8420   34.7410 N.3    84  TYR84      -0.1241
     68  CA        34.5150  -11.4390   33.5070 C.3    84  TYR84       0.1605
     69  C         35.5610  -11.1500   32.4140 C.2    84  TYR84       0.2264
     70  O         36.7070  -10.7550   32.7360 O.2    84  TYR84      -0.2867
     71  CB        33.7720  -10.1220   33.8360 C.3    84  TYR84       0.0534
     72  CG        33.3090   -9.1920   32.7360 C.ar   84  TYR84      -0.0201
     73  CD1       32.0440   -9.3810   32.1690 C.ar   84  TYR84      -0.0009
     74  CD2       33.9960   -8.1080   32.2490 C.ar   84  TYR84      -0.0009
     75  CE1       31.5580   -8.5950   31.1520 C.ar   84  TYR84       0.0417
     76  CE2       33.4750   -7.2310   31.2780 C.ar   84  TYR84       0.0417
     77  CZ        32.2410   -7.5140   30.7270 C.ar   84  TYR84       0.1957
     78  OH        31.7250   -6.6540   29.7700 O.3    84  TYR84      -0.2866
     79  N         36.4100  -10.9540   27.7460 N.3    86  TRP86      -0.1241
     80  CA        35.9820  -11.0230   26.3710 C.3    86  TRP86       0.1605
     81  C         36.9270  -11.7540   25.4380 C.2    86  TRP86       0.2264
     82  O         38.1340  -11.8840   25.7080 O.2    86  TRP86      -0.2867
     83  CB        35.9040   -9.5870   25.7750 C.3    86  TRP86       0.0550
     84  CG        34.8500   -8.6610   26.2670 C.ar   86  TRP86       0.0003
     85  CD1       34.9280   -7.9150   27.4200 C.ar   86  TRP86       0.0946
     86  CD2       33.5740   -8.3530   25.6910 C.ar   86  TRP86       0.0152
     87  NE1       33.7340   -7.2150   27.5820 N.ar   86  TRP86      -0.2442
     88  CE2       32.9270   -7.4430   26.5360 C.ar   86  TRP86       0.0810
     89  CE3       32.9490   -8.7500   24.4960 C.ar   86  TRP86       0.0012
     90  CZ2       31.6440   -6.9490   26.2600 C.ar   86  TRP86       0.0191
     91  CZ3       31.6720   -8.2680   24.2240 C.ar   86  TRP86       0.0001
     92  CH2       31.0500   -7.3360   25.0880 C.ar   86  TRP86       0.0015
     93  N         31.3520  -12.0870   25.3600 N.3    93  ALA93      -0.1245
     94  CA        31.5290  -11.5680   26.7030 C.3    93  ALA93       0.1562
     95  C         31.2910  -12.7610   27.6120 C.2    93  ALA93       0.2260
     96  O         30.3970  -13.5490   27.2400 O.2    93  ALA93      -0.2867
     97  CB        30.5500  -10.4290   26.9710 C.3    93  ALA93       0.0290
     98  N         31.2420  -14.5580   31.8420 N.3    95  TYR95      -0.1241
     99  CA        31.0490  -14.3370   33.2760 C.3    95  TYR95       0.1605
    100  C         31.1890  -15.6180   34.0590 C.2    95  TYR95       0.2264
    101  O         30.5180  -16.5930   33.7030 O.2    95  TYR95      -0.2867
    102  CB        29.5620  -13.9030   33.4980 C.3    95  TYR95       0.0534
    103  CG        29.1440  -12.5550   32.9520 C.ar   95  TYR95      -0.0201
    104  CD1       28.7010  -12.2460   31.6880 C.ar   95  TYR95      -0.0009
    105  CD2       29.3110  -11.5140   33.8700 C.ar   95  TYR95      -0.0009
    106  CE1       28.3030  -10.8960   31.3840 C.ar   95  TYR95       0.0417
    107  CE2       28.9960  -10.2110   33.5330 C.ar   95  TYR95       0.0417
    108  CZ        28.4670   -9.9320   32.2850 C.ar   95  TYR95       0.1957
    109  OH        28.1350   -8.5780   32.1170 O.3    95  TYR95      -0.2866
    110  N         23.2240  -10.8300   23.2300 N.3   128  ARG128     -0.1245
    111  CA        23.0380   -9.3860   23.2720 C.3   128  ARG128      0.1563
    112  C         22.9800   -8.8890   21.8170 C.2   128  ARG128      0.2260
    113  O         23.9020   -9.1250   21.0220 O.2   128  ARG128     -0.2867
    114  CB        24.1540   -8.7050   24.0760 C.3   128  ARG128      0.0307
    115  CG        24.1550   -9.1490   25.5550 C.3   128  ARG128      0.0489
    116  CD        23.3480   -8.1970   26.3960 C.3   128  ARG128      0.2205
    117  NE        24.1420   -7.0050   26.7760 N.pl3 128  ARG128     -0.0865
    118  CZ        23.6120   -5.8840   27.2610 C.cat 128  ARG128      0.5346
    119  NH1       22.2660   -5.8370   27.3550 N.pl3 128  ARG128      0.1354
    120  NH2       24.3440   -4.8410   27.6160 N.pl3 128  ARG128      0.1354
    121  N         26.1660   -2.1940   23.9120 N.3   132  PRO132     -0.2102
    122  CA        27.5260   -1.7330   24.0450 C.3   132  PRO132      0.1504
    123  C         28.4290   -2.9400   24.1960 C.2   132  PRO132      0.2576
    124  O         27.9550   -3.9180   24.7840 O.2   132  PRO132     -0.2718
    125  CB        27.4900   -0.9300   25.3570 C.3   132  PRO132      0.0282
    126  CG        26.0640   -0.4260   25.3500 C.3   132  PRO132      0.0208
    127  CD        25.2830   -1.7030   25.0080 C.3   132  PRO132      0.0893
    128  N         29.6550   -2.7910   23.7530 N.am  133  SER133     -0.1938
    129  CA        30.6140   -3.8880   23.8310 C.3   133  SER133      0.2055
    130  C         31.9900   -3.2420   23.7260 C.2   133  SER133      0.2642
    131  O         32.0650   -2.0610   23.3610 O.2   133  SER133     -0.2714
    132  CB        30.2700   -4.8650   22.6920 C.3   133  SER133      0.2130
    133  OG        30.8760   -4.4030   21.4570 O.3   133  SER133     -0.2179
    134  N         33.0540   -3.9900   23.7840 N.am  134  ILE134     -0.1977
    135  CA        34.4220   -3.5550   23.5980 C.3   134  ILE134      0.1596
    136  C         34.6880   -3.1010   22.1460 C.2   134  ILE134      0.2287
    137  O         35.7290   -2.4810   21.8460 O.2   134  ILE134     -0.2864
    138  CB        35.4110   -4.6750   23.9550 C.3   134  ILE134      0.0276
    139  CG1       35.1020   -5.9450   23.1230 C.3   134  ILE134      0.0022
    140  CG2       35.3150   -5.0040   25.4610 C.3   134  ILE134      0.0022
    141  CD1       36.1920   -7.0410   23.2450 C.3   134  ILE134      0.0001
    142  N         26.4430  -10.0030   20.1700 N.3   140  PHE140     -0.1241
    143  CA        27.4670  -10.9480   20.5970 C.3   140  PHE140      0.1605
    144  C         26.7370  -11.8860   21.5760 C.2   140  PHE140      0.2264
    145  O         25.6870  -11.5590   22.1010 O.2   140  PHE140     -0.2867
    146  CB        28.6160  -10.2100   21.3330 C.3   140  PHE140      0.0534
    147  CG        28.2200   -9.2210   22.4110 C.ar  140  PHE140     -0.0203
    148  CD1       27.8270   -7.9160   22.1160 C.ar  140  PHE140     -0.0042
    149  CD2       28.2160   -9.5940   23.7380 C.ar  140  PHE140     -0.0042
    150  CE1       27.4420   -7.0220   23.1140 C.ar  140  PHE140     -0.0003
    151  CE2       27.8080   -8.7550   24.7420 C.ar  140  PHE140     -0.0003
    152  CZ        27.4160   -7.4290   24.4340 C.ar  140  PHE140     -0.0000
    153  N         26.8390  -14.0620   25.2140 N.3   142  GLN142     -0.1245
    154  CA        27.5120  -13.9310   26.5250 C.3   142  GLN142      0.1566
    155  C         27.4800  -15.3790   27.0360 C.2   142  GLN142      0.2260
    156  O         26.4510  -16.0840   26.8990 O.2   142  GLN142     -0.2867
    157  CB        26.8220  -13.0340   27.5000 C.3   142  GLN142      0.0367
    158  CG        26.3370  -11.6930   27.0460 C.3   142  GLN142      0.0905
    159  CD        25.3070  -11.0560   27.9460 C.2   142  GLN142      0.2608
    160  OE1       24.1110  -11.4350   27.9750 O.2   142  GLN142     -0.2717
    161  NE2       25.8060  -10.0950   28.6780 N.am  142  GLN142     -0.0878
    162  N         40.7720  -11.1110   24.7770 N.3   176  TYR176     -0.1241
    163  CA        40.8790   -9.6500   24.8730 C.3   176  TYR176      0.1605
    164  C         41.0680   -9.2740   26.3410 C.2   176  TYR176      0.2264
    165  O         41.8740   -8.3890   26.6380 O.2   176  TYR176     -0.2867
    166  CB        39.6090   -9.0460   24.2970 C.3   176  TYR176      0.0534
    167  CG        39.4820   -7.5440   24.5890 C.ar  176  TYR176     -0.0201
    168  CD1       38.8630   -7.1570   25.7720 C.ar  176  TYR176     -0.0009
    169  CD2       39.9820   -6.5550   23.7490 C.ar  176  TYR176     -0.0009
    170  CE1       38.7150   -5.8400   26.1400 C.ar  176  TYR176      0.0417
    171  CE2       39.8170   -5.2170   24.1150 C.ar  176  TYR176      0.0417
    172  CZ        39.1690   -4.8500   25.2970 C.ar  176  TYR176      0.1957
    173  OH        38.9750   -3.4960   25.6220 O.3   176  TYR176     -0.2866
    174  N         29.8780   -5.9040   39.0950 N.3   183  GLU183     -0.1301
    175  CA        28.9940   -5.2570   38.1310 C.3   183  GLU183      0.1252
    176  C         27.7160   -4.9230   38.9060 C.3   183  GLU183      0.2009
    177  O         27.2890   -5.8220   39.6040 O.3   183  GLU183     -0.2188
    178  CB        28.6160   -6.2430   36.9600 C.3   183  GLU183      0.0335
    179  CG        27.7430   -5.5920   35.8640 C.3   183  GLU183      0.1156
    180  CD        27.5370   -6.4310   34.5900 C.2   183  GLU183      0.3649
    181  OE1       28.3060   -7.4140   34.4280 O.co2 183  GLU183     -0.2457
    182  OE2       26.7840   -6.0150   33.6500 O.co2 183  GLU183     -0.2457
@<TRIPOS>BOND
     1   142   143    1
     2   143   146    1
     3   143   144    1
     4   113   112    2
     5   146   147    1
     6   133   132    1
     7   144   145    2
     8   112   111    1
     9   137   136    2
    10   148   147   ar
    11   148   150   ar
    12   136   135    1
    13   147   149   ar
    14   132   129    1
    15   150   152   ar
    16   139   141    1
    17   139   138    1
    18   110   111    1
    19   111   114    1
    20   131   130    2
    21   135   134    1
    22   135   138    1
    23   130   134   am
    24   130   129    1
    25   149   151   ar
    26   169   171   ar
    27   169   167   ar
    28   128   129    1
    29   128   123   am
    30   121   122    1
    31   121   127    1
    32   138   140    1
    33   122   123    1
    34   122   125    1
    35   114   115    1
    36   171   172   ar
    37   123   124    2
    38    91    89   ar
    39    91    92   ar
    40   166   167    1
    41   166   163    1
    42   152   151   ar
    43    89    86   ar
    44   167   168   ar
    45   162   163    1
    46   163   164    1
    47   127   126    1
    48    92    90   ar
    49   153   154    1
    50   172   173    1
    51   172   170   ar
    52   126   125    1
    53    93    94    1
    54    81    82    2
    55    81    80    1
    56   115   116    1
    57    86    84   ar
    58    86    88   ar
    59   168   170   ar
    60    83    84    1
    61    83    80    1
    62    90    88   ar
    63    84    85   ar
    64   164   165    2
    65    80    79    1
    66   116   117    1
    67   154   155    1
    68   154   157    1
    69    88    87   ar
    70    94    97    1
    71    94    95    1
    72   117   118    2
    73   156   155    2
    74   158   157    1
    75   158   159    1
    76    96    95    2
    77   118   119    1
    78   118   120    1
    79    85    87   ar
    80    16    14    1
    81   159   160    2
    82   159   161   am
    83    34    35   ar
    84    34    32   ar
    85    37    35   ar
    86    37    39   ar
    87    35    33   ar
    88    15    13    1
    89    14    13    1
    90    32    31   ar
    91    39    38   ar
    92    13    10    1
    93    25    23   ar
    94    78    77    1
    95     8     6   am
    96    24    23   ar
    97    66    64    1
    98    33    31   ar
    99    33    36   ar
   100    12    11    1
   101    31    30    1
   102    23    22    1
   103    38    36   ar
   104    77    75   ar
   105    77    76   ar
   106     5     6    1
   107     5     2    1
   108    10     9    1
   109    10    11    1
   110     6     7    2
   111    75    73   ar
   112    76    74   ar
   113    64    65    1
   114    64    63    2
   115   106   104   ar
   116   106   108   ar
   117     4     3    2
   118    30    27    1
   119   104   103   ar
   120    46    45    2
   121    98    99    1
   122    22    21    1
   123     3     2    1
   124   109   108    1
   125     2     1    1
   126    73    72   ar
   127    63    62    1
   128    74    72   ar
   129   108   107   ar
   130    69    70    2
   131    69    68    1
   132    27    28    1
   133    27    26    1
   134    21    18    1
   135    72    71    1
   136    45    44    1
   137    45    47   am
   138   103   102    1
   139   103   105   ar
   140    44    41    1
   141    54    53    1
   142    28    29    2
   143    55    53    1
   144    99   102    1
   145    99   100    1
   146    68    71    1
   147    68    67    1
   148   107   105   ar
   149    62    61    2
   150   182   180   ar
   151   101   100    2
   152    18    19    1
   153    18    17    1
   154    43    42    2
   155    53    52    1
   156    40    41    1
   157    41    42    1
   158   181   180   ar
   159    52    49    1
   160   180   179    1
   161    19    20    2
   162    61    60    1
   163    48    49    1
   164    49    50    1
   165   179   178    1
   166    51    50    2
   167    60    57    1
   168    59    58    2
   169   178   175    1
   170    58    57    1
   171    57    56    1
   172   175   176    1
   173   175   174    1
   174   176   177    1
