@<TRIPOS>MOLECULE
tmp/1h4nA00.pdb
 87 83 0 0 0
SMALL
GASTEIGER

@<TRIPOS>ATOM
      1  N        -12.9380    6.1550   11.4390 N.3    89  GLN89      -0.1245
      2  CA       -12.6420    4.9690   10.6430 C.3    89  GLN89       0.1566
      3  C        -12.8770    3.6720   11.3860 C.2    89  GLN89       0.2260
      4  O        -13.0230    3.6560   12.6150 O.2    89  GLN89      -0.2867
      5  CB       -11.1500    4.9550   10.2380 C.3    89  GLN89       0.0367
      6  CG       -10.1970    4.6000   11.4200 C.3    89  GLN89       0.0905
      7  CD        -8.7570    4.2910   11.0130 C.2    89  GLN89       0.2608
      8  OE1       -8.2250    3.2150   11.3270 O.2    89  GLN89      -0.2717
      9  NE2       -8.1080    5.2390   10.3640 N.am   89  GLN89      -0.0878
     10  N        -11.3110   -0.5360   11.0910 N.3    91  ASN91      -0.1240
     11  CA       -10.2990   -1.4130   10.5000 C.3    91  ASN91       0.1653
     12  C        -10.3540   -2.7440   11.2340 C.2    91  ASN91       0.2266
     13  O        -11.0010   -2.8560   12.2860 O.2    91  ASN91      -0.2867
     14  CB        -8.8950   -0.8120   10.6470 C.3    91  ASN91       0.1155
     15  CG        -8.5570   -0.4800   12.0900 C.2    91  ASN91       0.2627
     16  OD1       -7.9150   -1.2670   12.7970 O.2    91  ASN91      -0.2716
     17  ND2       -8.9940    0.6840   12.5380 N.am   91  ASN91      -0.0877
     18  N         -8.1340   -6.6280   12.2620 N.3    93  HIS93      -0.1241
     19  CA        -6.8870   -7.3270   12.5430 C.3    93  HIS93       0.1621
     20  C         -7.3540   -8.7770   12.4550 C.2    93  HIS93       0.2264
     21  O         -8.4180   -9.1160   12.9940 O.2    93  HIS93      -0.2867
     22  CB        -6.3740   -7.0190   13.9580 C.3    93  HIS93       0.0745
     23  CG        -6.0660   -5.5720   14.1770 C.ar   93  HIS93       0.0817
     24  ND1       -4.8240   -5.0090   13.9820 N.ar   93  HIS93      -0.2268
     25  CD2       -6.8860   -4.5470   14.5220 C.ar   93  HIS93       0.1154
     26  CE1       -4.9300   -3.6930   14.2030 C.ar   93  HIS93       0.1986
     27  NE2       -6.1640   -3.3630   14.5360 N.ar   93  HIS93      -0.2212
     28  N        -12.1940   -2.6450   14.8510 N.3   116  HIS116     -0.1241
     29  CA       -12.0250   -1.4310   15.6400 C.3   116  HIS116      0.1621
     30  C        -12.7600   -0.2740   14.9790 C.2   116  HIS116      0.2264
     31  O        -12.5510    0.0040   13.7820 O.2   116  HIS116     -0.2867
     32  CB       -10.5450   -1.0300   15.7440 C.3   116  HIS116      0.0745
     33  CG        -9.6830   -2.0140   16.4780 C.ar  116  HIS116      0.0817
     34  ND1       -8.3520   -2.2040   16.1890 N.ar  116  HIS116     -0.2268
     35  CD2      -10.0320   -2.8180   17.5140 C.ar  116  HIS116      0.1154
     36  CE1       -7.9260   -3.1110   17.0520 C.ar  116  HIS116      0.1986
     37  NE2       -8.9060   -3.5110   17.8710 N.ar  116  HIS116     -0.2212
     38  N        -12.9210    3.4980   15.3940 N.3   118  VAL118     -0.1245
     39  CA       -12.1540    4.5800   16.0040 C.3   118  VAL118      0.1561
     40  C        -12.8790    5.9170   16.0340 C.2   118  VAL118      0.2260
     41  O        -13.3680    6.3910   14.9970 O.2   118  VAL118     -0.2867
     42  CB       -10.7920    4.7600   15.2670 C.3   118  VAL118      0.0252
     43  CG1       -9.8710    5.7100   16.0450 C.3   118  VAL118      0.0019
     44  CG2      -10.1190    3.4130   15.0620 C.3   118  VAL118      0.0019
     45  N        -12.0820    3.7670   21.2250 N.3   139  VAL139     -0.1245
     46  CA       -12.1570    2.7380   20.1980 C.3   139  VAL139      0.1561
     47  C        -13.0700    1.6290   20.6690 C.2   139  VAL139      0.2260
     48  O        -12.9480    1.1390   21.7930 O.2   139  VAL139     -0.2867
     49  CB       -10.7700    2.1440   19.8360 C.3   139  VAL139      0.0252
     50  CG1      -10.9160    1.1300   18.6990 C.3   139  VAL139      0.0019
     51  CG2       -9.8090    3.2540   19.4270 C.3   139  VAL139      0.0019
     52  N         -2.9600    2.9610   21.3850 N.3   194  LEU194     -0.1231
     53  CA        -3.1440    2.5150   20.0090 C.3   194  LEU194      0.1693
     54  C         -2.3830    1.1850   19.9650 C.2   194  LEU194      0.2593
     55  O         -1.3930    1.0130   20.6900 O.2   194  LEU194     -0.2718
     56  CB        -2.4960    3.4960   19.0360 C.3   194  LEU194      0.0284
     57  CG        -3.0590    4.9160   19.0260 C.3   194  LEU194      0.0019
     58  CD1       -2.1900    5.7920   18.1530 C.3   194  LEU194      0.0001
     59  CD2       -4.4980    4.8960   18.5280 C.3   194  LEU194      0.0001
     60  N         -2.8130    0.2630   19.1100 N.am  195  THR195     -0.1939
     61  CA        -2.1510   -1.0310   19.0240 C.3   195  THR195      0.2028
     62  C         -1.1010   -1.1240   17.9250 C.2   195  THR195      0.2642
     63  O         -0.5710   -2.2020   17.6610 O.2   195  THR195     -0.2714
     64  CB        -3.1630   -2.1790   18.8960 C.3   195  THR195      0.1808
     65  OG1       -4.0160   -1.9460   17.7630 O.3   195  THR195     -0.2208
     66  CG2       -4.0130   -2.2850   20.1890 C.3   195  THR195      0.0379
     67  N         -0.8430   -0.0010   17.2520 N.am  196  THR196     -0.1950
     68  CA         0.1830    0.0750   16.2160 C.3   196  THR196      0.1897
     69  C          0.9660    1.3670   16.4850 C.2   196  THR196      0.2313
     70  O          0.4700    2.2730   17.1660 O.2   196  THR196     -0.2863
     71  CB        -0.4230    0.1940   14.7870 C.3   196  THR196      0.1794
     72  OG1       -1.1530    1.4230   14.6720 O.3   196  THR196     -0.2208
     73  CG2       -1.3440   -0.9730   14.4780 C.3   196  THR196      0.0378
     74  N        -10.5940    2.2110   25.8150 N.3   205  TRP205     -0.1241
     75  CA       -11.0520    1.0280   25.1100 C.3   205  TRP205      0.1605
     76  C        -12.4080    0.5740   25.6080 C.2   205  TRP205      0.2264
     77  O        -12.6440    0.5210   26.8170 O.2   205  TRP205     -0.2867
     78  CB       -10.0340   -0.1090   25.2620 C.3   205  TRP205      0.0550
     79  CG        -8.9020    0.0150   24.3030 C.ar  205  TRP205      0.0003
     80  CD1       -7.6880    0.6010   24.5280 C.ar  205  TRP205      0.0946
     81  CD2       -8.8960   -0.4150   22.9330 C.ar  205  TRP205      0.0152
     82  NE1       -6.9320    0.5680   23.3780 N.ar  205  TRP205     -0.2442
     83  CE2       -7.6480   -0.0520   22.3870 C.ar  205  TRP205      0.0810
     84  CE3       -9.8300   -1.0750   22.1160 C.ar  205  TRP205      0.0012
     85  CZ2       -7.3030   -0.3270   21.0550 C.ar  205  TRP205      0.0191
     86  CZ3       -9.4900   -1.3520   20.7970 C.ar  205  TRP205      0.0001
     87  CH2       -8.2330   -0.9770   20.2790 C.ar  205  TRP205      0.0015
@<TRIPOS>BOND
     1     5     2    1
     2     5     6    1
     3     9     7   am
     4    11    14    1
     5    11    10    1
     6    11    12    1
     7     2     3    1
     8     2     1    1
     9    14    15    1
    10     7     8    2
    11     7     6    1
    12    12    13    2
    13     3     4    2
    14    15    17   am
    15    15    16    2
    16    18    19    1
    17    20    19    1
    18    20    21    2
    19    19    22    1
    20    31    30    2
    21    22    23    1
    22    24    23   ar
    23    24    26   ar
    24    23    25   ar
    25    26    27   ar
    26    73    71    1
    27    25    27   ar
    28    72    71    1
    29    71    68    1
    30    28    29    1
    31    30    29    1
    32    41    40    2
    33    44    42    1
    34    42    39    1
    35    42    43    1
    36    38    39    1
    37    29    32    1
    38    32    33    1
    39    39    40    1
    40    34    33   ar
    41    34    36   ar
    42    68    69    1
    43    68    67    1
    44    33    35   ar
    45    69    70    2
    46    36    37   ar
    47    67    62   am
    48    35    37   ar
    49    63    62    2
    50    65    64    1
    51    62    61    1
    52    58    57    1
    53    59    57    1
    54    50    49    1
    55    64    61    1
    56    64    66    1
    57    61    60    1
    58    57    56    1
    59    56    53    1
    60    60    54   am
    61    51    49    1
    62    49    46    1
    63    54    53    1
    64    54    55    2
    65    53    52    1
    66    46    47    1
    67    46    45    1
    68    87    86   ar
    69    87    85   ar
    70    47    48    2
    71    86    84   ar
    72    85    83   ar
    73    84    81   ar
    74    83    81   ar
    75    83    82   ar
    76    81    79   ar
    77    82    80   ar
    78    79    80   ar
    79    79    78    1
    80    75    78    1
    81    75    76    1
    82    75    74    1
    83    76    77    2
