@<TRIPOS>MOLECULE
tmp/1h4pA00.pdb
 107 103 0 0 0
SMALL
GASTEIGER

@<TRIPOS>ATOM
      1  N         64.6340   11.7960  -68.8800 N.3   200  MET200     -0.1230
      2  CA        65.3740   10.5480  -69.0170 C.3   200  MET200      0.1702
      3  C         64.5110    9.2970  -68.9020 C.2   200  MET200      0.2592
      4  O         64.7160    8.3310  -69.6360 O.2   200  MET200     -0.2718
      5  CB        66.5070   10.4960  -67.9900 C.3   200  MET200      0.0401
      6  CG        67.6210   11.5040  -68.2520 C.3   200  MET200      0.0596
      7  SD        68.3720   11.2560  -69.8930 S.3   200  MET200     -0.1393
      8  CE        69.2320    9.7210  -69.6280 C.3   200  MET200      0.0692
      9  N         63.5440    9.3040  -67.9900 N.am  201  ASP201     -0.1974
     10  CA        62.6910    8.1350  -67.8310 C.3   201  ASP201      0.1709
     11  C         61.8300    7.8800  -69.0580 C.2   201  ASP201      0.2293
     12  O         61.6240    6.7290  -69.4450 O.2   201  ASP201     -0.2864
     13  CB        61.8150    8.2680  -66.5830 C.3   201  ASP201      0.1436
     14  CG        62.6190    8.1790  -65.3030 C.2   201  ASP201      0.3671
     15  OD1       63.3900    7.2060  -65.1560 O.co2 201  ASP201     -0.2456
     16  OD2       62.4810    9.0770  -64.4450 O.co2 201  ASP201     -0.2456
     17  N         64.0320    6.3720  -71.8520 N.3   204  LYS204     -0.1245
     18  CA        64.3250    4.9720  -71.5730 C.3   204  LYS204      0.1561
     19  C         63.1440    4.0490  -71.8670 C.2   204  LYS204      0.2260
     20  O         63.2700    3.0980  -72.6340 O.2   204  LYS204     -0.2867
     21  CB        64.7320    4.7800  -70.1060 C.3   204  LYS204      0.0271
     22  CG        66.0530    5.4030  -69.7090 C.3   204  LYS204      0.0035
     23  CD        66.3590    5.0950  -68.2480 C.3   204  LYS204      0.0206
     24  CE        67.6570    5.7310  -67.7890 C.3   204  LYS204      0.1093
     25  NZ        67.8930    5.4730  -66.3400 N.3   204  LYS204     -0.1314
     26  N         75.3670   12.0000  -69.5880 N.3   232  GLN232     -0.1231
     27  CA        75.2860   11.6430  -68.1750 C.3   232  GLN232      0.1683
     28  C         76.6840   11.2290  -67.7190 C.2   232  GLN232      0.2434
     29  O         77.5290   10.8580  -68.5370 O.2   232  GLN232     -0.2733
     30  CB        74.3080   10.4810  -67.9800 C.3   232  GLN232      0.0380
     31  CG        72.8730   10.7930  -68.3890 C.3   232  GLN232      0.0905
     32  CD        72.2140   11.8290  -67.4860 C.2   232  GLN232      0.2608
     33  OE1       71.0910   12.2680  -67.7410 O.2   232  GLN232     -0.2717
     34  NE2       72.9080   12.2170  -66.4250 N.am  232  GLN232     -0.0878
     35  N         76.9540   11.2920  -66.4070 N.am  233  PRO233     -0.2718
     36  CA        78.2790   10.9060  -65.9150 C.3   233  PRO233      0.1535
     37  C         78.5440    9.4090  -66.0540 C.2   233  PRO233      0.2599
     38  O         77.6210    8.6210  -66.2750 O.2   233  PRO233     -0.2715
     39  CB        78.2450   11.3620  -64.4590 C.3   233  PRO233      0.0310
     40  CG        76.8100   11.1700  -64.0940 C.3   233  PRO233      0.0237
     41  CD        76.0860   11.7250  -65.2970 C.3   233  PRO233      0.0939
     42  N         79.8100    9.0190  -65.9360 N.am  234  TYR234     -0.1960
     43  CA        80.1780    7.6110  -66.0350 C.3   234  TYR234      0.1771
     44  C         79.3850    6.7610  -65.0390 C.2   234  TYR234      0.2620
     45  O         79.0560    7.2230  -63.9470 O.2   234  TYR234     -0.2715
     46  CB        81.6740    7.4320  -65.7680 C.3   234  TYR234      0.0574
     47  CG        82.5850    7.7360  -66.9460 C.ar  234  TYR234     -0.0198
     48  CD1       82.0670    8.0360  -68.2070 C.ar  234  TYR234     -0.0009
     49  CD2       83.9710    7.6760  -66.8030 C.ar  234  TYR234     -0.0009
     50  CE1       82.9110    8.2650  -69.2970 C.ar  234  TYR234      0.0417
     51  CE2       84.8230    7.9010  -67.8840 C.ar  234  TYR234      0.0417
     52  CZ        84.2860    8.1920  -69.1250 C.ar  234  TYR234      0.1957
     53  OH        85.1290    8.3820  -70.1940 O.3   234  TYR234     -0.2866
     54  N         79.0910    5.5220  -65.4340 N.am  235  ASN235     -0.1958
     55  CA        78.3520    4.5530  -64.6190 C.3   235  ASN235      0.1819
     56  C         76.8420    4.7770  -64.5690 C.2   235  ASN235      0.2621
     57  O         76.1030    3.9300  -64.0670 O.2   235  ASN235     -0.2715
     58  CB        78.9050    4.5060  -63.1870 C.3   235  ASN235      0.1195
     59  CG        80.3700    4.1180  -63.1380 C.2   235  ASN235      0.2630
     60  OD1       81.2420    4.9650  -62.9340 O.2   235  ASN235     -0.2716
     61  ND2       80.6520    2.8340  -63.3380 N.am  235  ASN235     -0.0877
     62  N         76.3830    5.9050  -65.0990 N.am  236  TYR236     -0.1974
     63  CA        74.9560    6.2100  -65.1030 C.3   236  TYR236      0.1639
     64  C         74.1110    5.0990  -65.7250 C.2   236  TYR236      0.2290
     65  O         73.0340    4.7710  -65.2230 O.2   236  TYR236     -0.2864
     66  CB        74.6920    7.5100  -65.8650 C.3   236  TYR236      0.0560
     67  CG        73.2210    7.7890  -66.0730 C.ar  236  TYR236     -0.0198
     68  CD1       72.4890    8.5210  -65.1390 C.ar  236  TYR236     -0.0009
     69  CD2       72.5470    7.2780  -67.1840 C.ar  236  TYR236     -0.0009
     70  CE1       71.1200    8.7350  -65.3060 C.ar  236  TYR236      0.0417
     71  CE2       71.1830    7.4830  -67.3590 C.ar  236  TYR236      0.0417
     72  CZ        70.4760    8.2120  -66.4160 C.ar  236  TYR236      0.1957
     73  OH        69.1270    8.4100  -66.5910 O.3   236  TYR236     -0.2866
     74  N         74.9080    1.9050  -65.9690 N.3   238  ASP238     -0.1225
     75  CA        75.1880    0.5760  -65.4330 C.3   238  ASP238      0.1805
     76  C         73.9370   -0.1970  -65.0200 C.2   238  ASP238      0.2597
     77  O         73.8850   -1.4150  -65.1770 O.2   238  ASP238     -0.2718
     78  CB        76.1420    0.6580  -64.2360 C.3   238  ASP238      0.1424
     79  CG        77.5630    1.0110  -64.6360 C.2   238  ASP238      0.3668
     80  OD1       77.8910    0.9240  -65.8420 O.co2 238  ASP238     -0.2456
     81  OD2       78.3570    1.3620  -63.7360 O.co2 238  ASP238     -0.2456
     82  N         72.9270    0.5030  -64.5090 N.am  239  ASP239     -0.1974
     83  CA        71.7030   -0.1630  -64.0710 C.3   239  ASP239      0.1709
     84  C         70.6200   -0.2770  -65.1370 C.2   239  ASP239      0.2293
     85  O         69.4940   -0.6720  -64.8340 O.2   239  ASP239     -0.2864
     86  CB        71.1120    0.5420  -62.8410 C.3   239  ASP239      0.1436
     87  CG        70.5820    1.9330  -63.1520 C.2   239  ASP239      0.3671
     88  OD1       70.1140    2.1690  -64.2890 O.co2 239  ASP239     -0.2456
     89  OD2       70.6150    2.7930  -62.2450 O.co2 239  ASP239     -0.2456
     90  N         88.3110    5.5100  -66.4220 N.3   282  GLY282     -0.1225
     91  CA        86.9750    5.5720  -65.8540 C.3   282  GLY282      0.1811
     92  C         85.9330    4.6110  -66.4020 C.2   282  GLY282      0.2280
     93  O         85.0140    4.2250  -65.6770 O.2   282  GLY282     -0.2866
     94  N         85.5320    0.4690  -65.3250 N.3   285  ASN285     -0.1240
     95  CA        84.6620    0.0940  -64.2230 C.3   285  ASN285      0.1653
     96  C         83.1790    0.0830  -64.6010 C.2   285  ASN285      0.2266
     97  O         82.3230   -0.2330  -63.7720 O.2   285  ASN285     -0.2867
     98  CB        84.9120    1.0820  -63.0830 C.3   285  ASN285      0.1155
     99  CG        84.3100    0.6420  -61.7800 C.2   285  ASN285      0.2627
    100  OD1       83.9000   -0.5090  -61.6250 O.2   285  ASN285     -0.2716
    101  ND2       84.2810    1.5670  -60.8240 N.am  285  ASN285     -0.0877
    102  N         79.5670   -1.0050  -66.4520 N.3   287  SER287     -0.1217
    103  CA        78.8210   -2.2490  -66.6290 C.3   287  SER287      0.1889
    104  C         78.3030   -2.5700  -68.0330 C.2   287  SER287      0.2288
    105  O         77.4420   -3.4350  -68.1970 O.2   287  SER287     -0.2866
    106  CB        77.6500   -2.2680  -65.6360 C.3   287  SER287      0.2089
    107  OG        76.9030   -3.4630  -65.7450 O.3   287  SER287     -0.2183
@<TRIPOS>BOND
     1    20    19    2
     2    19    18    1
     3    17    18    1
     4    18    21    1
     5    53    52    1
     6    21    22    1
     7     7     8    1
     8     7     6    1
     9    22    23    1
    10     4     3    2
    11    26    27    1
    12    12    11    2
    13    50    52   ar
    14    50    48   ar
    15    52    51   ar
    16    11    10    1
    17     2     3    1
    18     2     1    1
    19     2     5    1
    20     3     9   am
    21    29    28    2
    22    31    30    1
    23    31    32    1
    24     6     5    1
    25    23    24    1
    26    48    47   ar
    27   105   104    2
    28    27    30    1
    29    27    28    1
    30   104   103    1
    31     9    10    1
    32    51    49   ar
    33    10    13    1
    34    24    25    1
    35    33    32    2
    36    28    35   am
    37    32    34   am
    38    71    69   ar
    39    71    72   ar
    40    69    67   ar
    41    47    49   ar
    42    47    46    1
    43   103   102    1
    44   103   106    1
    45    73    72    1
    46    13    14    1
    47    90    91    1
    48    72    70   ar
    49    35    36    1
    50    35    41    1
    51    92    91    1
    52    92    93    2
    53    38    37    2
    54    67    66    1
    55    67    68   ar
    56    37    42   am
    57    37    36    1
    58    43    42    1
    59    43    46    1
    60    43    44    1
    61    74    75    1
    62    36    39    1
    63    66    63    1
    64    80    79   ar
    65   107   106    1
    66    64    65    2
    67    64    63    1
    68    54    44   am
    69    54    55    1
    70    75    76    1
    71    75    78    1
    72    94    95    1
    73    70    68   ar
    74    14    15   ar
    75    14    16   ar
    76    41    40    1
    77    77    76    2
    78    84    85    2
    79    84    83    1
    80    63    62    1
    81    62    56   am
    82    44    45    2
    83    76    82   am
    84    79    78    1
    85    79    81   ar
    86    55    56    1
    87    55    58    1
    88    96    95    1
    89    96    97    2
    90    56    57    2
    91    82    83    1
    92    39    40    1
    93    88    87   ar
    94    95    98    1
    95    83    86    1
    96    61    59   am
    97    58    59    1
    98    87    86    1
    99    87    89   ar
   100    59    60    2
   101    98    99    1
   102    99   100    2
   103    99   101   am
