@<TRIPOS>MOLECULE
tmp/1h4qB00.pdb
 195 191 0 0 0
SMALL
GASTEIGER

@<TRIPOS>ATOM
      1  N         -8.4660  107.6070   96.0640 N.3    77  GLU77      -0.1245
      2  CA        -7.1630  107.3530   95.4610 C.3    77  GLU77       0.1567
      3  C         -6.1530  108.4110   95.8610 C.2    77  GLU77       0.2260
      4  O         -5.8080  109.2960   95.0790 O.2    77  GLU77      -0.2867
      5  CB        -7.2680  107.2600   93.9320 C.3    77  GLU77       0.0388
      6  CG        -8.0470  108.3660   93.2380 C.3    77  GLU77       0.1160
      7  CD        -8.1480  108.1280   91.7300 C.2    77  GLU77       0.3649
      8  OE1       -7.1490  108.3660   91.0150 O.co2  77  GLU77      -0.2457
      9  OE2       -9.2200  107.6860   91.2610 O.co2  77  GLU77      -0.2457
     10  N         -1.6250  106.5930   93.2040 N.3   129  ARG129     -0.1245
     11  CA        -3.0750  106.6540   93.0610 C.3   129  ARG129      0.1563
     12  C         -3.5070  105.3130   93.6070 C.2   129  ARG129      0.2260
     13  O         -3.5140  104.3070   92.9020 O.2   129  ARG129     -0.2867
     14  CB        -3.4760  106.7910   91.6030 C.3   129  ARG129      0.0307
     15  CG        -3.0380  108.0910   91.0070 C.3   129  ARG129      0.0489
     16  CD        -3.5200  108.2090   89.5910 C.3   129  ARG129      0.2205
     17  NE        -3.0340  109.4340   88.9700 N.pl3 129  ARG129     -0.0865
     18  CZ        -3.2410  109.7520   87.7000 C.cat 129  ARG129      0.5346
     19  NH1       -3.9290  108.9320   86.9170 N.pl3 129  ARG129      0.1354
     20  NH2       -2.7570  110.8830   87.2070 N.pl3 129  ARG129      0.1354
     21  N         -4.7410  101.8450   95.0300 N.3   131  GLU131     -0.1245
     22  CA        -5.4240  100.6870   94.4790 C.3   131  GLU131      0.1567
     23  C         -4.8600   99.5010   95.2640 C.2   131  GLU131      0.2260
     24  O         -3.6570   99.2430   95.2270 O.2   131  GLU131     -0.2867
     25  CB        -5.1380  100.5630   92.9770 C.3   131  GLU131      0.0388
     26  CG        -6.1100  101.3760   92.1230 C.3   131  GLU131      0.1160
     27  CD        -5.5060  101.8430   90.8160 C.2   131  GLU131      0.3649
     28  OE1       -6.2130  102.5140   90.0290 O.co2 131  GLU131     -0.2457
     29  OE2       -4.3170  101.5450   90.5760 O.co2 131  GLU131     -0.2457
     30  N          1.9240   96.9150   85.7100 N.3   137  PHE137     -0.1227
     31  CA         1.9400   97.8520   84.5970 C.3   137  PHE137      0.1736
     32  C          0.5820   98.3890   84.1690 C.2   137  PHE137      0.2595
     33  O          0.4990   99.4460   83.5420 O.2   137  PHE137     -0.2718
     34  CB         2.6360   97.2180   83.3990 C.3   137  PHE137      0.0547
     35  CG         4.0600   96.8460   83.6630 C.ar  137  PHE137     -0.0202
     36  CD1        4.5080   95.5550   83.4240 C.ar  137  PHE137     -0.0042
     37  CD2        4.9610   97.7900   84.1480 C.ar  137  PHE137     -0.0042
     38  CE1        5.8250   95.2060   83.6590 C.ar  137  PHE137     -0.0003
     39  CE2        6.2840   97.4500   84.3870 C.ar  137  PHE137     -0.0003
     40  CZ         6.7150   96.1560   84.1420 C.ar  137  PHE137     -0.0000
     41  N         -0.4880   97.6820   84.5090 N.am  138  LEU138     -0.1966
     42  CA        -1.8090   98.1440   84.1100 C.3   138  LEU138      0.1728
     43  C         -2.4980   98.9970   85.1560 C.2   138  LEU138      0.2616
     44  O         -3.1200  100.0070   84.8280 O.2   138  LEU138     -0.2715
     45  CB        -2.6860   96.9540   83.7350 C.3   138  LEU138      0.0311
     46  CG        -3.0480   96.9040   82.2510 C.3   138  LEU138      0.0022
     47  CD1       -1.9110   97.4380   81.3850 C.3   138  LEU138      0.0001
     48  CD2       -3.3820   95.4740   81.8970 C.3   138  LEU138      0.0001
     49  N         -2.3910   98.6010   86.4130 N.am  139  ARG139     -0.1963
     50  CA        -3.0150   99.3710   87.4710 C.3   139  ARG139      0.1729
     51  C         -2.3660   99.0530   88.8190 C.2   139  ARG139      0.2616
     52  O         -2.5770   97.9790   89.3950 O.2   139  ARG139     -0.2715
     53  CB        -4.5200   99.0870   87.4900 C.3   139  ARG139      0.0348
     54  CG        -5.3370  100.1410   88.2230 C.3   139  ARG139      0.0492
     55  CD        -6.7300  100.3120   87.6280 C.3   139  ARG139      0.2205
     56  NE        -6.7180  101.0980   86.3970 N.pl3 139  ARG139     -0.0865
     57  CZ        -7.8050  101.3680   85.6820 C.cat 139  ARG139      0.5346
     58  NH1       -8.9870  100.9150   86.0790 N.pl3 139  ARG139      0.1354
     59  NH2       -7.7150  102.0920   84.5730 N.pl3 139  ARG139      0.1354
     60  N         -1.5690  100.0000   89.3090 N.am  140  THR140     -0.1951
     61  CA        -0.8590   99.8400   90.5710 C.3   140  THR140      0.1897
     62  C         -0.8770  101.1200   91.4100 C.2   140  THR140      0.2313
     63  O         -0.9990  102.2230   90.8770 O.2   140  THR140     -0.2863
     64  CB         0.6030   99.4340   90.3090 C.3   140  THR140      0.1794
     65  OG1        1.1730  100.3140   89.3320 O.3   140  THR140     -0.2208
     66  CG2        0.6760   98.0090   89.7900 C.3   140  THR140      0.0378
     67  N          3.3210  104.2480   90.4070 N.3   143  PHE143     -0.1241
     68  CA         3.7560  103.9410   89.0510 C.3   143  PHE143      0.1605
     69  C          4.6150  105.0550   88.4800 C.2   143  PHE143      0.2264
     70  O          4.4850  106.2130   88.8720 O.2   143  PHE143     -0.2867
     71  CB         2.5520  103.6600   88.1450 C.3   143  PHE143      0.0534
     72  CG         1.6620  104.8490   87.9000 C.ar  143  PHE143     -0.0203
     73  CD1        1.9410  105.7490   86.8730 C.ar  143  PHE143     -0.0042
     74  CD2        0.5050  105.0310   88.6540 C.ar  143  PHE143     -0.0042
     75  CE1        1.0730  106.8150   86.5940 C.ar  143  PHE143     -0.0003
     76  CE2       -0.3690  106.0860   88.3880 C.ar  143  PHE143     -0.0003
     77  CZ        -0.0850  106.9800   87.3540 C.ar  143  PHE143     -0.0000
     78  N          6.0390  107.4660   85.3820 N.3   145  TRP145     -0.1241
     79  CA         5.5220  108.0720   84.1720 C.3   145  TRP145      0.1605
     80  C          6.2690  109.3560   83.8840 C.2   145  TRP145      0.2264
     81  O          7.2350  109.7140   84.5610 O.2   145  TRP145     -0.2867
     82  CB         4.0210  108.3720   84.2990 C.3   145  TRP145      0.0550
     83  CG         3.6850  109.5300   85.1960 C.ar  145  TRP145      0.0003
     84  CD1        4.4740  110.0680   86.1750 C.ar  145  TRP145      0.0946
     85  CD2        2.4400  110.2390   85.2540 C.ar  145  TRP145      0.0152
     86  NE1        3.7970  111.0620   86.8390 N.ar  145  TRP145     -0.2442
     87  CE2        2.5460  111.1870   86.2980 C.ar  145  TRP145      0.0810
     88  CE3        1.2380  110.1600   84.5300 C.ar  145  TRP145      0.0012
     89  CZ2        1.4980  112.0520   86.6380 C.ar  145  TRP145      0.0191
     90  CZ3        0.1930  111.0240   84.8670 C.ar  145  TRP145      0.0001
     91  CH2        0.3320  111.9550   85.9140 C.ar  145  TRP145      0.0015
     92  N        -10.4950  114.3840   81.6890 N.3   192  PHE192     -0.1241
     93  CA        -9.8160  114.7030   82.9380 C.3   192  PHE192      0.1605
     94  C        -10.6800  115.7300   83.6530 C.2   192  PHE192      0.2264
     95  O        -11.1420  116.7060   83.0470 O.2   192  PHE192     -0.2867
     96  CB        -8.4230  115.2850   82.6670 C.3   192  PHE192      0.0534
     97  CG        -7.6800  115.7100   83.9130 C.ar  192  PHE192     -0.0203
     98  CD1       -7.5240  114.8360   84.9850 C.ar  192  PHE192     -0.0042
     99  CD2       -7.1200  116.9810   84.0040 C.ar  192  PHE192     -0.0042
    100  CE1       -6.8190  115.2220   86.1280 C.ar  192  PHE192     -0.0003
    101  CE2       -6.4130  117.3730   85.1450 C.ar  192  PHE192     -0.0003
    102  CZ        -6.2640  116.4920   86.2060 C.ar  192  PHE192     -0.0000
    103  N         -5.8450  102.9340   77.0290 N.3   212  GLN212     -0.1231
    104  CA        -5.4900  104.3310   76.8420 C.3   212  GLN212      0.1698
    105  C         -3.9730  104.4280   77.0270 C.2   212  GLN212      0.2592
    106  O         -3.4800  104.3900   78.1550 O.2   212  GLN212     -0.2718
    107  CB        -6.2280  105.1460   77.8990 C.3   212  GLN212      0.0381
    108  CG        -5.9880  106.6370   77.9030 C.3   212  GLN212      0.0905
    109  CD        -6.7150  107.2920   79.0670 C.2   212  GLN212      0.2608
    110  OE1       -7.9500  107.2490   79.1520 O.2   212  GLN212     -0.2717
    111  NE2       -5.9530  107.8860   79.9830 N.am  212  GLN212     -0.0878
    112  N         -3.2370  104.5410   75.9250 N.am  213  ALA213     -0.1966
    113  CA        -1.7730  104.6040   75.9850 C.3   213  ALA213      0.1728
    114  C         -1.2150  105.9270   76.4960 C.2   213  ALA213      0.2617
    115  O         -0.1920  105.9500   77.1820 O.2   213  ALA213     -0.2715
    116  CB        -1.1800  104.2880   74.6150 C.3   213  ALA213      0.0334
    117  N         -1.8870  107.0230   76.1570 N.am  214  GLY214     -0.1940
    118  CA        -1.4360  108.3320   76.5930 C.3   214  GLY214      0.2014
    119  C         -2.4760  109.4170   76.3920 C.2   214  GLY214      0.2639
    120  O         -3.2860  109.3560   75.4690 O.2   214  GLY214     -0.2714
    121  N         -2.4590  110.4230   77.2560 N.am  215  THR215     -0.1950
    122  CA        -3.4140  111.5110   77.1430 C.3   215  THR215      0.1897
    123  C         -2.7460  112.8750   77.0780 C.2   215  THR215      0.2313
    124  O         -1.6110  113.0470   77.5220 O.2   215  THR215     -0.2863
    125  CB        -4.3950  111.4960   78.3160 C.3   215  THR215      0.1794
    126  OG1       -3.6680  111.4780   79.5530 O.3   215  THR215     -0.2208
    127  CG2       -5.2790  110.2710   78.2310 C.3   215  THR215      0.0378
    128  N         -4.0990  116.8980   77.6940 N.3   217  HIS217     -0.1241
    129  CA        -5.1990  117.7760   78.0760 C.3   217  HIS217      0.1621
    130  C         -5.0480  119.2680   77.8110 C.2   217  HIS217      0.2264
    131  O         -3.9580  119.8350   77.9190 O.2   217  HIS217     -0.2867
    132  CB        -5.4730  117.6220   79.5650 C.3   217  HIS217      0.0745
    133  CG        -5.3980  116.2120   80.0530 C.ar  217  HIS217      0.0817
    134  ND1       -6.4220  115.3070   79.8830 N.ar  217  HIS217     -0.2268
    135  CD2       -4.4200  115.5540   80.7170 C.ar  217  HIS217      0.1154
    136  CE1       -6.0790  114.1510   80.4230 C.ar  217  HIS217      0.1986
    137  NE2       -4.8690  114.2740   80.9370 N.ar  217  HIS217     -0.2212
    138  N          0.6290  113.1240   79.6780 N.3   247  GLY247     -0.1225
    139  CA         1.3820  112.1140   80.3820 C.3   247  GLY247      0.1811
    140  C          1.2670  110.7230   79.8060 C.2   247  GLY247      0.2280
    141  O          0.2560  110.3550   79.2120 O.2   247  GLY247     -0.2866
    142  N          2.5140  106.7020   81.1010 N.3   249  SER249     -0.1202
    143  CA         3.1050  105.9110   82.1830 C.3   249  SER249      0.2020
    144  C          3.6270  104.5640   81.7100 C.2   249  SER249      0.2619
    145  O          3.5510  104.2380   80.5220 O.2   249  SER249     -0.2717
    146  CB         2.0790  105.6640   83.2750 C.3   249  SER249      0.2103
    147  OG         1.1570  104.6900   82.8320 O.3   249  SER249     -0.2182
    148  N          4.1460  103.7680   82.6450 N.am  250  TRP250     -0.1961
    149  CA         4.6810  102.4730   82.2680 C.3   250  TRP250      0.1771
    150  C          3.5880  101.5300   81.8240 C.2   250  TRP250      0.2619
    151  O          3.8430  100.3800   81.4630 O.2   250  TRP250     -0.2715
    152  CB         5.5270  101.8490   83.3820 C.3   250  TRP250      0.0590
    153  CG         4.8740  101.5820   84.6910 C.ar  250  TRP250      0.0006
    154  CD1        3.5560  101.3340   84.9250 C.ar  250  TRP250      0.0946
    155  CD2        5.5450  101.4130   85.9430 C.ar  250  TRP250      0.0152
    156  NE1        3.3600  101.0100   86.2520 N.ar  250  TRP250     -0.2442
    157  CE2        4.5680  101.0510   86.8980 C.ar  250  TRP250      0.0810
    158  CE3        6.8840  101.5270   86.3510 C.ar  250  TRP250      0.0012
    159  CZ2        4.8830  100.8000   88.2380 C.ar  250  TRP250      0.0191
    160  CZ3        7.2000  101.2790   87.6800 C.ar  250  TRP250      0.0001
    161  CH2        6.2000  100.9170   88.6090 C.ar  250  TRP250      0.0015
    162  N          2.3640  102.0310   81.8380 N.am  251  ARG251     -0.1977
    163  CA         1.2480  101.2360   81.3830 C.3   251  ARG251      0.1597
    164  C          1.5190  100.9520   79.9010 C.2   251  ARG251      0.2287
    165  O          1.0370   99.9700   79.3360 O.2   251  ARG251     -0.2864
    166  CB        -0.0510  102.0210   81.5470 C.3   251  ARG251      0.0334
    167  CG        -1.1640  101.4910   80.6830 C.3   251  ARG251      0.0492
    168  CD        -2.4070  102.3220   80.7990 C.3   251  ARG251      0.2205
    169  NE        -3.1520  102.0080   82.0100 N.pl3 251  ARG251     -0.0865
    170  CZ        -4.3770  102.4610   82.2510 C.cat 251  ARG251      0.5346
    171  NH1       -4.9780  103.2460   81.3620 N.pl3 251  ARG251      0.1354
    172  NH2       -4.9980  102.1220   83.3720 N.pl3 251  ARG251      0.1354
    173  N        -14.2900  105.2570   74.2270 N.3   432  ARG432     -0.1245
    174  CA       -12.8440  105.2930   74.1320 C.3   432  ARG432      0.1563
    175  C        -12.4510  106.6570   73.6290 C.2   432  ARG432      0.2260
    176  O        -11.5780  107.3070   74.2020 O.2   432  ARG432     -0.2867
    177  CB       -12.3380  104.1930   73.1990 C.3   432  ARG432      0.0307
    178  CG       -12.7130  102.7840   73.6620 C.3   432  ARG432      0.0489
    179  CD       -12.6070  102.6660   75.1750 C.3   432  ARG432      0.2205
    180  NE       -11.3530  103.2370   75.6560 N.pl3 432  ARG432     -0.0865
    181  CZ       -11.0890  103.5120   76.9300 C.cat 432  ARG432      0.5346
    182  NH1      -11.9920  103.2700   77.8740 N.pl3 432  ARG432      0.1354
    183  NH2       -9.9170  104.0440   77.2550 N.pl3 432  ARG432      0.1354
    184  N         -9.3740   98.6450   79.6460 N.3   464  TYR464     -0.1241
    185  CA        -8.5570   98.3220   80.8030 C.3   464  TYR464      0.1605
    186  C         -8.5040   99.5400   81.7210 C.2   464  TYR464      0.2264
    187  O         -8.2980   99.3530   82.9390 O.2   464  TYR464     -0.2867
    188  CB        -7.1480   97.9360   80.3490 C.3   464  TYR464      0.0534
    189  CG        -6.9720   96.4670   80.0470 C.ar  464  TYR464     -0.0201
    190  CD1       -6.8560   95.5380   81.0770 C.ar  464  TYR464     -0.0009
    191  CD2       -6.9170   96.0030   78.7310 C.ar  464  TYR464     -0.0009
    192  CE1       -6.6890   94.1830   80.8090 C.ar  464  TYR464      0.0417
    193  CE2       -6.7500   94.6450   78.4500 C.ar  464  TYR464      0.0417
    194  CZ        -6.6350   93.7460   79.4950 C.ar  464  TYR464      0.1957
    195  OH        -6.4510   92.4130   79.2380 O.3   464  TYR464     -0.2866
@<TRIPOS>BOND
     1   177   178    1
     2   177   174    1
     3   175   174    1
     4   175   176    2
     5   178   179    1
     6   174   173    1
     7   116   113    1
     8   179   180    1
     9   120   119    2
    10   180   181    2
    11   112   113    1
    12   112   105   am
    13   113   114    1
    14   117   114   am
    15   117   118    1
    16   119   118    1
    17   119   121   am
    18   114   115    2
    19   104   105    1
    20   104   103    1
    21   104   107    1
    22   181   183    1
    23   181   182    1
    24   105   106    2
    25   123   122    1
    26   123   124    2
    27   122   121    1
    28   122   125    1
    29   128   129    1
    30   130   131    2
    31   130   129    1
    32   107   108    1
    33   108   109    1
    34   129   132    1
    35   127   125    1
    36   125   126    1
    37   193   191   ar
    38   193   194   ar
    39   191   189   ar
    40   109   110    2
    41   109   111   am
    42   141   140    2
    43   195   194    1
    44   165   164    2
    45   194   192   ar
    46   132   133    1
    47   184   185    1
    48   138   139    1
    49   140   139    1
    50   134   133   ar
    51   134   136   ar
    52   164   163    1
    53   189   188    1
    54   189   190   ar
    55   133   135   ar
    56   188   185    1
    57   136   137   ar
    58   145   144    2
    59   167   168    1
    60   167   166    1
    61   135   137   ar
    62   168   169    1
    63   185   186    1
    64   192   190   ar
    65   142   143    1
    66   171   170    1
    67   163   166    1
    68   163   162    1
    69    47    46    1
    70   151   150    2
    71    92    93    1
    72   144   143    1
    73   144   148   am
    74   186   187    2
    75   150   162   am
    76   150   149    1
    77    48    46    1
    78   169   170    2
    79   143   146    1
    80    46    45    1
    81   170   172    1
    82   149   148    1
    83   149   152    1
    84    96    93    1
    85    96    97    1
    86   147   146    1
    87    93    94    1
    88    95    94    2
    89   152   153    1
    90    34    35    1
    91    34    31    1
    92    36    38   ar
    93    36    35   ar
    94    33    32    2
    95    38    40   ar
    96    35    37   ar
    97    45    42    1
    98    80    79    1
    99    80    81    2
   100    97    99   ar
   101    97    98   ar
   102    99   101   ar
   103    42    41    1
   104    42    43    1
   105    40    39   ar
   106    37    39   ar
   107    32    41   am
   108    32    31    1
   109    79    82    1
   110    79    78    1
   111    82    83    1
   112    88    90   ar
   113    88    85   ar
   114    59    57    1
   115    31    30    1
   116   153   154   ar
   117   153   155   ar
   118    44    43    2
   119    90    91   ar
   120   154   156   ar
   121    98   100   ar
   122   101   102   ar
   123    43    49   am
   124    83    85   ar
   125    83    84   ar
   126    85    87   ar
   127    57    58    1
   128    57    56    2
   129    91    89   ar
   130   155   158   ar
   131   155   157   ar
   132   100   102   ar
   133    84    86   ar
   134   156   157   ar
   135    87    89   ar
   136    87    86   ar
   137   158   160   ar
   138    56    55    1
   139    49    50    1
   140    75    73   ar
   141    75    77   ar
   142    73    72   ar
   143   157   159   ar
   144    19    18    1
   145    20    18    1
   146    77    76   ar
   147    50    53    1
   148    50    51    1
   149    53    54    1
   150    55    54    1
   151   160   161   ar
   152    18    17    2
   153    72    71    1
   154    72    74   ar
   155    71    68    1
   156   159   161   ar
   157    76    74   ar
   158    69    70    2
   159    69    68    1
   160    51    60   am
   161    51    52    2
   162    17    16    1
   163    68    67    1
   164    60    61    1
   165    65    64    1
   166    16    15    1
   167    66    64    1
   168    28    27   ar
   169    64    61    1
   170    61    62    1
   171    29    27   ar
   172    27    26    1
   173    63    62    2
   174    15    14    1
   175     8     7   ar
   176     9     7   ar
   177    14    11    1
   178     7     6    1
   179    26    25    1
   180    13    12    2
   181    25    22    1
   182    11    10    1
   183    11    12    1
   184     6     5    1
   185     5     2    1
   186    22    21    1
   187    22    23    1
   188     4     3    2
   189    24    23    2
   190     2     3    1
   191     2     1    1
