@<TRIPOS>MOLECULE
tmp/1h4qB01.pdb
 112 109 0 0 0
SMALL
GASTEIGER

@<TRIPOS>ATOM
      1  N         -0.7390  113.4770   90.7680 N.3    98  THR98      -0.1218
      2  CA        -0.4390  114.2030   89.5400 C.3    98  THR98       0.1862
      3  C          0.1090  115.5470   90.0370 C.2    98  THR98       0.2287
      4  O         -0.1530  115.9190   91.1800 O.2    98  THR98      -0.2866
      5  CB        -1.7050  114.3900   88.6890 C.3    98  THR98       0.1770
      6  OG1       -1.3720  115.0900   87.4880 O.3    98  THR98      -0.2211
      7  CG2       -2.7550  115.1550   89.4620 C.3    98  THR98       0.0375
      8  N         -0.1850  118.9700   88.5470 N.3   100  GLU100     -0.1245
      9  CA        -0.7760  120.2510   88.1320 C.3   100  GLU100      0.1567
     10  C         -0.7630  121.3340   89.2020 C.2   100  GLU100      0.2260
     11  O         -0.2130  122.4180   88.9970 O.2   100  GLU100     -0.2867
     12  CB        -2.2240  120.0650   87.6740 C.3   100  GLU100      0.0388
     13  CG        -2.3920  119.6330   86.2340 C.3   100  GLU100      0.1160
     14  CD        -2.2820  118.1340   86.0540 C.2   100  GLU100      0.3649
     15  OE1       -2.5550  117.6530   84.9310 O.co2 100  GLU100     -0.2457
     16  OE2       -1.9270  117.4430   87.0340 O.co2 100  GLU100     -0.2457
     17  N         -1.6250  106.5930   93.2040 N.3   129  ARG129     -0.1245
     18  CA        -3.0750  106.6540   93.0610 C.3   129  ARG129      0.1563
     19  C         -3.5070  105.3130   93.6070 C.2   129  ARG129      0.2260
     20  O         -3.5140  104.3070   92.9020 O.2   129  ARG129     -0.2867
     21  CB        -3.4760  106.7910   91.6030 C.3   129  ARG129      0.0307
     22  CG        -3.0380  108.0910   91.0070 C.3   129  ARG129      0.0489
     23  CD        -3.5200  108.2090   89.5910 C.3   129  ARG129      0.2205
     24  NE        -3.0340  109.4340   88.9700 N.pl3 129  ARG129     -0.0865
     25  CZ        -3.2410  109.7520   87.7000 C.cat 129  ARG129      0.5346
     26  NH1       -3.9290  108.9320   86.9170 N.pl3 129  ARG129      0.1354
     27  NH2       -2.7570  110.8830   87.2070 N.pl3 129  ARG129      0.1354
     28  N          6.0390  107.4660   85.3820 N.3   145  TRP145     -0.1241
     29  CA         5.5220  108.0720   84.1720 C.3   145  TRP145      0.1605
     30  C          6.2690  109.3560   83.8840 C.2   145  TRP145      0.2264
     31  O          7.2350  109.7140   84.5610 O.2   145  TRP145     -0.2867
     32  CB         4.0210  108.3720   84.2990 C.3   145  TRP145      0.0550
     33  CG         3.6850  109.5300   85.1960 C.ar  145  TRP145      0.0003
     34  CD1        4.4740  110.0680   86.1750 C.ar  145  TRP145      0.0946
     35  CD2        2.4400  110.2390   85.2540 C.ar  145  TRP145      0.0152
     36  NE1        3.7970  111.0620   86.8390 N.ar  145  TRP145     -0.2442
     37  CE2        2.5460  111.1870   86.2980 C.ar  145  TRP145      0.0810
     38  CE3        1.2380  110.1600   84.5300 C.ar  145  TRP145      0.0012
     39  CZ2        1.4980  112.0520   86.6380 C.ar  145  TRP145      0.0191
     40  CZ3        0.1930  111.0240   84.8670 C.ar  145  TRP145      0.0001
     41  CH2        0.3320  111.9550   85.9140 C.ar  145  TRP145      0.0015
     42  N          5.1850  113.3420   83.1060 N.3   147  GLU147     -0.1245
     43  CA         4.0610  114.2720   83.0740 C.3   147  GLU147      0.1567
     44  C          4.5300  115.6570   82.6460 C.2   147  GLU147      0.2260
     45  O          5.3320  116.3070   83.3190 O.2   147  GLU147     -0.2867
     46  CB         3.3320  114.3300   84.4340 C.3   147  GLU147      0.0388
     47  CG         4.0570  115.0320   85.5640 C.3   147  GLU147      0.1160
     48  CD         3.2500  115.0590   86.8680 C.2   147  GLU147      0.3649
     49  OE1        2.0940  115.5370   86.8620 O.co2 147  GLU147     -0.2457
     50  OE2        3.7770  114.6120   87.9120 O.co2 147  GLU147     -0.2457
     51  N          3.8530  119.6570   81.4850 N.3   149  HIS149     -0.1241
     52  CA         2.9920  120.7750   81.8470 C.3   149  HIS149      0.1621
     53  C          3.4760  122.0220   81.1290 C.2   149  HIS149      0.2264
     54  O          4.6620  122.3560   81.1770 O.2   149  HIS149     -0.2867
     55  CB         3.0390  121.0080   83.3500 C.3   149  HIS149      0.0745
     56  CG         2.4570  119.8890   84.1480 C.ar  149  HIS149      0.0817
     57  ND1        1.1210  119.8260   84.4750 N.ar  149  HIS149     -0.2268
     58  CD2        3.0260  118.7780   84.6700 C.ar  149  HIS149      0.1154
     59  CE1        0.8910  118.7240   85.1680 C.ar  149  HIS149      0.1986
     60  NE2        2.0320  118.0700   85.3000 N.ar  149  HIS149     -0.2212
     61  N        -10.4950  114.3840   81.6890 N.3   192  PHE192     -0.1241
     62  CA        -9.8160  114.7030   82.9380 C.3   192  PHE192      0.1605
     63  C        -10.6800  115.7300   83.6530 C.2   192  PHE192      0.2264
     64  O        -11.1420  116.7060   83.0470 O.2   192  PHE192     -0.2867
     65  CB        -8.4230  115.2850   82.6670 C.3   192  PHE192      0.0534
     66  CG        -7.6800  115.7100   83.9130 C.ar  192  PHE192     -0.0203
     67  CD1       -7.5240  114.8360   84.9850 C.ar  192  PHE192     -0.0042
     68  CD2       -7.1200  116.9810   84.0040 C.ar  192  PHE192     -0.0042
     69  CE1       -6.8190  115.2220   86.1280 C.ar  192  PHE192     -0.0003
     70  CE2       -6.4130  117.3730   85.1450 C.ar  192  PHE192     -0.0003
     71  CZ        -6.2640  116.4920   86.2060 C.ar  192  PHE192     -0.0000
     72  N         -2.4590  110.4230   77.2560 N.3   215  THR215     -0.1218
     73  CA        -3.4140  111.5110   77.1430 C.3   215  THR215      0.1862
     74  C         -2.7460  112.8750   77.0780 C.2   215  THR215      0.2287
     75  O         -1.6110  113.0470   77.5220 O.2   215  THR215     -0.2866
     76  CB        -4.3950  111.4960   78.3160 C.3   215  THR215      0.1770
     77  OG1       -3.6680  111.4780   79.5530 O.3   215  THR215     -0.2211
     78  CG2       -5.2790  110.2710   78.2310 C.3   215  THR215      0.0375
     79  N         -4.0990  116.8980   77.6940 N.3   217  HIS217     -0.1241
     80  CA        -5.1990  117.7760   78.0760 C.3   217  HIS217      0.1621
     81  C         -5.0480  119.2680   77.8110 C.2   217  HIS217      0.2264
     82  O         -3.9580  119.8350   77.9190 O.2   217  HIS217     -0.2867
     83  CB        -5.4730  117.6220   79.5650 C.3   217  HIS217      0.0745
     84  CG        -5.3980  116.2120   80.0530 C.ar  217  HIS217      0.0817
     85  ND1       -6.4220  115.3070   79.8830 N.ar  217  HIS217     -0.2268
     86  CD2       -4.4200  115.5540   80.7170 C.ar  217  HIS217      0.1154
     87  CE1       -6.0790  114.1510   80.4230 C.ar  217  HIS217      0.1986
     88  NE2       -4.8690  114.2740   80.9370 N.ar  217  HIS217     -0.2212
     89  N         -1.4750  119.7830   79.7200 N.3   245  SER245     -0.1202
     90  CA        -0.9340  118.7240   80.5460 C.3   245  SER245      0.2020
     91  C         -0.9590  117.4440   79.7180 C.2   245  SER245      0.2619
     92  O         -1.9160  117.1910   78.9930 O.2   245  SER245     -0.2717
     93  CB        -1.8190  118.5900   81.7920 C.3   245  SER245      0.2103
     94  OG        -1.4370  117.5050   82.6110 O.3   245  SER245     -0.2182
     95  N          0.0940  116.6470   79.8050 N.am  246  TRP246     -0.1961
     96  CA         0.1490  115.3950   79.0580 C.3   246  TRP246      0.1771
     97  C          0.9780  114.3930   79.8110 C.2   246  TRP246      0.2620
     98  O          1.9210  114.7550   80.5050 O.2   246  TRP246     -0.2715
     99  CB         0.7520  115.6080   77.6720 C.3   246  TRP246      0.0590
    100  CG         1.5840  116.8310   77.5880 C.ar  246  TRP246      0.0006
    101  CD1        1.1410  118.1130   77.4280 C.ar  246  TRP246      0.0946
    102  CD2        3.0090  116.9080   77.6850 C.ar  246  TRP246      0.0152
    103  NE1        2.2050  118.9840   77.4170 N.ar  246  TRP246     -0.2442
    104  CE2        3.3630  118.2700   77.5740 C.ar  246  TRP246      0.0810
    105  CE3        4.0210  115.9600   77.8570 C.ar  246  TRP246      0.0012
    106  CZ2        4.6850  118.7050   77.6230 C.ar  246  TRP246      0.0191
    107  CZ3        5.3350  116.3940   77.9060 C.ar  246  TRP246      0.0001
    108  CH2        5.6540  117.7560   77.7900 C.ar  246  TRP246      0.0015
    109  N          0.6290  113.1240   79.6780 N.am  247  GLY247     -0.1954
    110  CA         1.3820  112.1140   80.3820 C.3   247  GLY247      0.1869
    111  C          1.2670  110.7230   79.8060 C.2   247  GLY247      0.2309
    112  O          0.2560  110.3550   79.2120 O.2   247  GLY247     -0.2863
@<TRIPOS>BOND
     1    74    73    1
     2    74    75    2
     3    73    72    1
     4    73    76    1
     5   103   101   ar
     6   103   104   ar
     7   101   100   ar
     8   104   106   ar
     9   104   102   ar
    10   100    99    1
    11   100   102   ar
    12   106   108   ar
    13    99    96    1
    14   102   105   ar
    15    79    80    1
    16   108   107   ar
    17    81    82    2
    18    81    80    1
    19   105   107   ar
    20    80    83    1
    21    78    76    1
    22    76    77    1
    23    92    91    2
    24    96    95    1
    25    96    97    1
    26   112   111    2
    27    83    84    1
    28   109    97   am
    29   109   110    1
    30    91    95   am
    31    91    90    1
    32    89    90    1
    33   111   110    1
    34    97    98    2
    35    85    84   ar
    36    85    87   ar
    37    84    86   ar
    38    87    88   ar
    39    90    93    1
    40    86    88   ar
    41    53    54    2
    42    53    52    1
    43    51    52    1
    44    61    62    1
    45    93    94    1
    46    52    55    1
    47    44    43    1
    48    44    45    2
    49    65    62    1
    50    65    66    1
    51    62    63    1
    52    64    63    2
    53    43    42    1
    54    43    46    1
    55    55    56    1
    56    30    29    1
    57    30    31    2
    58    66    68   ar
    59    66    67   ar
    60    68    70   ar
    61    56    57   ar
    62    56    58   ar
    63    29    32    1
    64    29    28    1
    65    32    33    1
    66    46    47    1
    67    57    59   ar
    68    38    40   ar
    69    38    35   ar
    70    58    60   ar
    71    40    41   ar
    72    15    14   ar
    73    67    69   ar
    74    70    71   ar
    75    59    60   ar
    76    33    35   ar
    77    33    34   ar
    78    35    37   ar
    79    47    48    1
    80    41    39   ar
    81    14    13    1
    82    14    16   ar
    83    69    71   ar
    84    34    36   ar
    85    13    12    1
    86    37    39   ar
    87    37    36   ar
    88    49    48   ar
    89    48    50   ar
    90    26    25    1
    91    27    25    1
    92     6     5    1
    93    12     9    1
    94    25    24    2
    95     9     8    1
    96     9    10    1
    97     5     7    1
    98     5     2    1
    99    24    23    1
   100    11    10    2
   101     2     3    1
   102     2     1    1
   103    23    22    1
   104     3     4    2
   105    22    21    1
   106    21    18    1
   107    20    19    2
   108    18    17    1
   109    18    19    1
