@<TRIPOS>MOLECULE
tmp/1h4sA00.pdb
 237 235 0 0 0
SMALL
GASTEIGER

@<TRIPOS>ATOM
      1  N         16.8090  105.4420  111.4120 N.3    83  PHE83      -0.1241
      2  CA        15.8730  106.0830  110.4970 C.3    83  PHE83       0.1605
      3  C         14.5140  106.3670  111.1050 C.2    83  PHE83       0.2264
      4  O         13.8390  107.3150  110.7090 O.2    83  PHE83      -0.2867
      5  CB        15.6980  105.2320  109.2410 C.3    83  PHE83       0.0534
      6  CG        16.8640  105.3040  108.3020 C.ar   83  PHE83      -0.0203
      7  CD1       17.1540  106.4860  107.6250 C.ar   83  PHE83      -0.0042
      8  CD2       17.7010  104.2110  108.1270 C.ar   83  PHE83      -0.0042
      9  CE1       18.2600  106.5770  106.7930 C.ar   83  PHE83      -0.0003
     10  CE2       18.8110  104.2960  107.2950 C.ar   83  PHE83      -0.0003
     11  CZ        19.0900  105.4790  106.6300 C.ar   83  PHE83      -0.0000
     12  N         15.3140  104.8410  102.4670 N.3   107  THR107     -0.1218
     13  CA        16.3730  104.0730  101.8300 C.3   107  THR107      0.1862
     14  C         15.7310  102.7240  101.5380 C.2   107  THR107      0.2287
     15  O         14.7660  102.3530  102.2030 O.2   107  THR107     -0.2866
     16  CB        17.5940  103.9210  102.7500 C.3   107  THR107      0.1770
     17  OG1       18.5960  103.1660  102.0710 O.3   107  THR107     -0.2211
     18  CG2       17.2220  103.2340  104.0500 C.3   107  THR107      0.0375
     19  N         17.2480   99.3080  101.3840 N.3   109  GLU109     -0.1245
     20  CA        17.8280   98.0110  101.7370 C.3   109  GLU109      0.1567
     21  C         16.8010   96.9470  102.1160 C.2   109  GLU109      0.2260
     22  O         16.8450   95.8280  101.6100 O.2   109  GLU109     -0.2867
     23  CB        18.8260   98.1350  102.8880 C.3   109  GLU109      0.0388
     24  CG        20.1700   98.6840  102.5010 C.3   109  GLU109      0.1160
     25  CD        20.1600  100.1850  102.3690 C.2   109  GLU109      0.3649
     26  OE1       21.2500  100.7730  102.1810 O.co2 109  GLU109     -0.2457
     27  OE2       19.0610  100.7730  102.4580 O.co2 109  GLU109     -0.2457
     28  N         13.0880  111.8130  103.9170 N.3   138  ARG138     -0.1245
     29  CA        13.7070  111.7540  105.2370 C.3   138  ARG138      0.1563
     30  C         13.3720  113.0600  105.9290 C.2   138  ARG138      0.2260
     31  O         13.9450  114.1050  105.6170 O.2   138  ARG138     -0.2867
     32  CB        15.2280  111.5880  105.1360 C.3   138  ARG138      0.0307
     33  CG        15.6650  110.2440  104.5710 C.3   138  ARG138      0.0489
     34  CD        17.1610  110.0360  104.7130 C.3   138  ARG138      0.2205
     35  NE        17.6140  108.9070  103.9030 N.pl3 138  ARG138     -0.0865
     36  CZ        18.8670  108.4650  103.8640 C.cat 138  ARG138      0.5346
     37  NH1       19.7990  109.0510  104.5970 N.pl3 138  ARG138      0.1354
     38  NH2       19.1930  107.4540  103.0710 N.pl3 138  ARG138      0.1354
     39  N         13.9870  115.4380  108.0430 N.3   140  GLU140     -0.1245
     40  CA        15.0960  115.8810  108.8660 C.3   140  GLU140      0.1567
     41  C         14.8900  117.3160  109.2990 C.2   140  GLU140      0.2260
     42  O         14.2910  118.1100  108.5790 O.2   140  GLU140     -0.2867
     43  CB        16.4120  115.7640  108.0910 C.3   140  GLU140      0.0388
     44  CG        16.6870  114.3760  107.5430 C.3   140  GLU140      0.1160
     45  CD        18.0220  114.2830  106.8220 C.2   140  GLU140      0.3649
     46  OE1       18.2900  113.2450  106.1730 O.co2 140  GLU140     -0.2457
     47  OE2       18.8110  115.2480  106.9100 O.co2 140  GLU140     -0.2457
     48  N         19.3470  121.2030   98.2470 N.3   146  PHE146     -0.1227
     49  CA        20.2640  120.1820   97.7400 C.3   146  PHE146      0.1736
     50  C         21.0300  119.3820   98.7790 C.2   146  PHE146      0.2595
     51  O         21.0030  118.1590   98.7410 O.2   146  PHE146     -0.2718
     52  CB        21.2510  120.7910   96.7500 C.3   146  PHE146      0.0547
     53  CG        20.6070  121.2700   95.4920 C.ar  146  PHE146     -0.0202
     54  CD1       20.5820  122.6250   95.1770 C.ar  146  PHE146     -0.0042
     55  CD2       19.9980  120.3630   94.6270 C.ar  146  PHE146     -0.0042
     56  CE1       19.9550  123.0660   94.0160 C.ar  146  PHE146     -0.0003
     57  CE2       19.3720  120.7950   93.4670 C.ar  146  PHE146     -0.0003
     58  CZ        19.3490  122.1480   93.1570 C.ar  146  PHE146     -0.0000
     59  N         21.7080  120.0570   99.7000 N.am  147  LEU147     -0.1966
     60  CA        22.4910  119.3730  100.7200 C.3   147  LEU147      0.1728
     61  C         21.6650  118.5090  101.6570 C.2   147  LEU147      0.2616
     62  O         22.0850  117.4110  102.0410 O.2   147  LEU147     -0.2715
     63  CB        23.2660  120.3910  101.5410 C.3   147  LEU147      0.0311
     64  CG        24.5600  120.9710  100.9720 C.3   147  LEU147      0.0022
     65  CD1       24.4750  121.1790   99.4680 C.3   147  LEU147      0.0001
     66  CD2       24.8320  122.2850  101.6830 C.3   147  LEU147      0.0001
     67  N         20.4800  118.9890  102.0160 N.am  148  ARG148     -0.1963
     68  CA        19.6290  118.2560  102.9450 C.3   148  ARG148      0.1729
     69  C         18.1720  118.6420  102.7880 C.2   148  ARG148      0.2616
     70  O         17.7080  119.5970  103.3990 O.2   148  ARG148     -0.2715
     71  CB        20.1070  118.5410  104.3720 C.3   148  ARG148      0.0348
     72  CG        19.2570  117.9840  105.4930 C.3   148  ARG148      0.0492
     73  CD        20.0440  118.0450  106.7950 C.3   148  ARG148      0.2205
     74  NE        21.2800  117.2790  106.6770 N.pl3 148  ARG148     -0.0865
     75  CZ        22.2910  117.3340  107.5360 C.cat 148  ARG148      0.5346
     76  NH1       22.2170  118.1280  108.5970 N.pl3 148  ARG148      0.1354
     77  NH2       23.3780  116.5960  107.3280 N.pl3 148  ARG148      0.1354
     78  N         17.4470  117.8910  101.9730 N.am  149  THR149     -0.1951
     79  CA        16.0400  118.1790  101.7380 C.3   149  THR149      0.1897
     80  C         15.1170  117.0320  102.1760 C.2   149  THR149      0.2313
     81  O         15.5070  115.8670  102.1190 O.2   149  THR149     -0.2863
     82  CB        15.8170  118.4830  100.2440 C.3   149  THR149      0.1794
     83  OG1       16.4270  117.4530   99.4530 O.3   149  THR149     -0.2208
     84  CG2       16.4440  119.8230   99.8690 C.3   149  THR149      0.0378
     85  N         14.3920  113.9480   98.2500 N.3   152  PHE152     -0.1241
     86  CA        15.5280  114.2210   97.3910 C.3   152  PHE152      0.1605
     87  C         15.7580  113.1120   96.4000 C.2   152  PHE152      0.2264
     88  O         15.4440  111.9530   96.6600 O.2   152  PHE152     -0.2867
     89  CB        16.7940  114.4630   98.2230 C.3   152  PHE152      0.0534
     90  CG        17.2290  113.2830   99.0530 C.ar  152  PHE152     -0.0203
     91  CD1       18.1840  112.3900   98.5750 C.ar  152  PHE152     -0.0042
     92  CD2       16.7070  113.0800  100.3340 C.ar  152  PHE152     -0.0042
     93  CE1       18.6140  111.3140   99.3660 C.ar  152  PHE152     -0.0003
     94  CE2       17.1330  112.0050  101.1280 C.ar  152  PHE152     -0.0003
     95  CZ        18.0830  111.1280  100.6440 C.ar  152  PHE152     -0.0000
     96  N         18.1900  110.7340   94.0820 N.3   154  TRP154     -0.1241
     97  CA        19.5060  110.1420   94.2070 C.3   154  TRP154      0.1605
     98  C         19.5180  108.8740   93.3930 C.2   154  TRP154      0.2264
     99  O         18.5780  108.5670   92.6550 O.2   154  TRP154     -0.2867
    100  CB        19.8080  109.8000   95.6750 C.3   154  TRP154      0.0550
    101  CG        19.0530  108.6000   96.2160 C.ar  154  TRP154      0.0003
    102  CD1       18.0050  107.9560   95.6330 C.ar  154  TRP154      0.0946
    103  CD2       19.2570  107.9590   97.4760 C.ar  154  TRP154      0.0152
    104  NE1       17.5410  106.9580   96.4500 N.ar  154  TRP154     -0.2442
    105  CE2       18.2930  106.9380   97.5890 C.ar  154  TRP154      0.0810
    106  CE3       20.1590  108.1520   98.5260 C.ar  154  TRP154      0.0012
    107  CZ2       18.2050  106.1140   98.7060 C.ar  154  TRP154      0.0191
    108  CZ3       20.0700  107.3280   99.6430 C.ar  154  TRP154      0.0001
    109  CH2       19.1000  106.3220   99.7210 C.ar  154  TRP154      0.0015
    110  N         20.4960  104.8250   94.2620 N.3   156  GLU156     -0.1245
    111  CA        20.8760  103.9320   95.3590 C.3   156  GLU156      0.1567
    112  C         21.2100  102.5460   94.8110 C.2   156  GLU156      0.2260
    113  O         20.3600  101.8740   94.2410 O.2   156  GLU156     -0.2867
    114  CB        19.7770  103.8470   96.4340 C.3   156  GLU156      0.0388
    115  CG        18.4570  103.2340   96.0110 C.3   156  GLU156      0.1160
    116  CD        17.4810  103.0900   97.1820 C.2   156  GLU156      0.3649
    117  OE1       17.8670  102.5060   98.2200 O.co2 156  GLU156     -0.2457
    118  OE2       16.3280  103.5560   97.0690 O.co2 156  GLU156     -0.2457
    119  N         22.4790   98.6080   95.1510 N.3   158  HIS158     -0.1241
    120  CA        22.3700   97.4790   96.0570 C.3   158  HIS158      0.1621
    121  C         22.9230   96.2380   95.3930 C.2   158  HIS158      0.2264
    122  O         22.4920   95.8650   94.3010 O.2   158  HIS158     -0.2867
    123  CB        20.9100   97.2580   96.4220 C.3   158  HIS158      0.0745
    124  CG        20.3320   98.3630   97.2410 C.ar  158  HIS158      0.0817
    125  ND1       20.3690   98.3630   98.6200 N.ar  158  HIS158     -0.2268
    126  CD2       19.7550   99.5300   96.8780 C.ar  158  HIS158      0.1154
    127  CE1       19.8370   99.4850   99.0700 C.ar  158  HIS158      0.1986
    128  NE2       19.4580  100.2090   98.0340 N.ar  158  HIS158     -0.2212
    129  N         26.8520  104.2920  108.4170 N.3   201  PHE201     -0.1241
    130  CA        25.4590  104.1200  108.0150 C.3   201  PHE201      0.1605
    131  C         24.7460  103.1390  108.9300 C.2   201  PHE201      0.2264
    132  O         25.2680  102.0660  109.2220 O.2   201  PHE201     -0.2867
    133  CB        25.4150  103.6080  106.5770 C.3   201  PHE201      0.0534
    134  CG        24.0330  103.3490  106.0540 C.ar  201  PHE201     -0.0203
    135  CD1       23.1820  104.4020  105.7310 C.ar  201  PHE201     -0.0042
    136  CD2       23.5970  102.0450  105.8400 C.ar  201  PHE201     -0.0042
    137  CE1       21.9160  104.1660  105.1950 C.ar  201  PHE201     -0.0003
    138  CE2       22.3330  101.7930  105.3060 C.ar  201  PHE201     -0.0003
    139  CZ        21.4900  102.8590  104.9810 C.ar  201  PHE201     -0.0000
    140  N         30.1310  115.5500  102.8370 N.3   221  GLN221     -0.1231
    141  CA        30.2090  114.1750  102.3640 C.3   221  GLN221      0.1698
    142  C         29.3440  114.1660  101.0960 C.2   221  GLN221      0.2592
    143  O         28.1550  114.4880  101.1410 O.2   221  GLN221     -0.2718
    144  CB        29.6880  113.2420  103.4640 C.3   221  GLN221      0.0381
    145  CG        29.3990  111.8300  103.0690 C.3   221  GLN221      0.0905
    146  CD        28.0320  111.7020  102.4580 C.2   221  GLN221      0.2608
    147  OE1       27.8640  111.8300  101.2420 O.2   221  GLN221     -0.2717
    148  NE2       27.0310  111.4720  103.3020 N.am  221  GLN221     -0.0878
    149  N         29.9540  113.8250   99.9640 N.am  222  ALA222     -0.1966
    150  CA        29.2550  113.8490   98.6820 C.3   222  ALA222      0.1728
    151  C         28.8310  112.4940   98.1430 C.2   222  ALA222      0.2617
    152  O         28.1800  112.4130   97.1040 O.2   222  ALA222     -0.2715
    153  CB        30.1170  114.5800   97.6340 C.3   222  ALA222      0.0334
    154  N         29.1960  111.4310   98.8420 N.am  223  GLY223     -0.1940
    155  CA        28.8240  110.1040   98.3820 C.3   223  GLY223      0.2014
    156  C         29.2850  109.0420   99.3500 C.2   223  GLY223      0.2639
    157  O         30.3530  109.1670   99.9480 O.2   223  GLY223     -0.2714
    158  N         28.4980  107.9870   99.5030 N.am  224  THR224     -0.1950
    159  CA        28.8730  106.9320  100.4320 C.3   224  THR224      0.1897
    160  C         28.6980  105.5500   99.8390 C.2   224  THR224      0.2313
    161  O         27.8800  105.3490   98.9490 O.2   224  THR224     -0.2863
    162  CB        28.0480  107.0220  101.7290 C.3   224  THR224      0.1794
    163  OG1       26.6510  107.0260  101.4130 O.3   224  THR224     -0.2208
    164  CG2       28.3870  108.2940  102.4740 C.3   224  THR224      0.0378
    165  N         28.6250  101.4920  101.3750 N.3   226  HIS226     -0.1241
    166  CA        28.6320  100.6490  102.5680 C.3   226  HIS226      0.1621
    167  C         28.7690   99.1490  102.3900 C.2   226  HIS226      0.2264
    168  O         28.1930   98.5500  101.4750 O.2   226  HIS226     -0.2867
    169  CB        27.3460  100.8810  103.3500 C.3   226  HIS226      0.0745
    170  CG        26.8550  102.2910  103.2980 C.ar  226  HIS226      0.0817
    171  ND1       27.4680  103.3220  103.9750 N.ar  226  HIS226     -0.2268
    172  CD2       25.8020  102.8400  102.6500 C.ar  226  HIS226      0.1154
    173  CE1       26.8120  104.4450  103.7480 C.ar  226  HIS226      0.1986
    174  NE2       25.7960  104.1810  102.9480 N.ar  226  HIS226     -0.2212
    175  N         25.8410   98.5680   99.7090 N.3   254  SER254     -0.1202
    176  CA        24.9010   99.6320   99.4110 C.3   254  SER254      0.2020
    177  C         25.7010  100.8890   99.1040 C.2   254  SER254      0.2619
    178  O         26.7180  101.1460   99.7370 O.2   254  SER254     -0.2717
    179  CB        24.0260   99.8510  100.6480 C.3   254  SER254      0.2103
    180  OG        22.9520  100.7120  100.3930 O.3   254  SER254     -0.2182
    181  N         25.2550  101.6670   98.1270 N.am  255  TRP255     -0.1961
    182  CA        25.9390  102.9160   97.7800 C.3   255  TRP255      0.1771
    183  C         24.9730  103.9080   97.1570 C.2   255  TRP255      0.2620
    184  O         24.0410  103.5290   96.4490 O.2   255  TRP255     -0.2715
    185  CB        27.0930  102.6650   96.8120 C.3   255  TRP255      0.0590
    186  CG        26.9210  101.4260   96.0180 C.ar  255  TRP255      0.0006
    187  CD1       27.1620  100.1440   96.4350 C.ar  255  TRP255      0.0946
    188  CD2       26.4440  101.3300   94.6750 C.ar  255  TRP255      0.0152
    189  NE1       26.8650   99.2610   95.4310 N.ar  255  TRP255     -0.2442
    190  CE2       26.4220   99.9590   94.3390 C.ar  255  TRP255      0.0810
    191  CE3       26.0320  102.2680   93.7220 C.ar  255  TRP255      0.0012
    192  CZ2       26.0040   99.5020   93.0850 C.ar  255  TRP255      0.0191
    193  CZ3       25.6150  101.8110   92.4730 C.ar  255  TRP255      0.0001
    194  CH2       25.6060  100.4390   92.1690 C.ar  255  TRP255      0.0015
    195  N         25.2000  105.1870   97.4230 N.am  256  GLY256     -0.1940
    196  CA        24.3260  106.2000   96.8740 C.3   256  GLY256      0.2014
    197  C         24.9100  107.5940   96.8220 C.2   256  GLY256      0.2639
    198  O         25.7630  107.9680   97.6310 O.2   256  GLY256     -0.2714
    199  N         24.4320  108.3650   95.8530 N.am  257  LEU257     -0.1963
    200  CA        24.8530  109.7390   95.6610 C.3   257  LEU257      0.1728
    201  C         23.5820  110.5070   95.3060 C.2   257  LEU257      0.2617
    202  O         22.9090  110.1730   94.3340 O.2   257  LEU257     -0.2715
    203  CB        25.8880  109.7980   94.5380 C.3   257  LEU257      0.0311
    204  CG        26.4060  111.1670   94.1110 C.3   257  LEU257      0.0022
    205  CD1       27.7190  111.0240   93.3880 C.3   257  LEU257      0.0001
    206  CD2       25.3890  111.8330   93.2200 C.3   257  LEU257      0.0001
    207  N         23.2420  111.5140   96.1110 N.am  258  SER258     -0.1936
    208  CA        22.0300  112.3240   95.9050 C.3   258  SER258      0.2055
    209  C         22.2920  113.6470   95.1850 C.2   258  SER258      0.2643
    210  O         23.4360  113.9650   94.8410 O.2   258  SER258     -0.2714
    211  CB        21.3850  112.6400   97.2410 C.3   258  SER258      0.2130
    212  OG        22.2100  113.5150   97.9780 O.3   258  SER258     -0.2179
    213  N         21.2360  114.4290   94.9610 N.am  259  TRP259     -0.1959
    214  CA        21.4370  115.7040   94.2830 C.3   259  TRP259      0.1771
    215  C         22.2300  116.6700   95.1540 C.2   259  TRP259      0.2619
    216  O         22.5330  117.7900   94.7490 O.2   259  TRP259     -0.2715
    217  CB        20.1210  116.3350   93.8060 C.3   259  TRP259      0.0590
    218  CG        19.0890  116.6370   94.8300 C.ar  259  TRP259      0.0006
    219  CD1       19.2830  116.9030   96.1550 C.ar  259  TRP259      0.0946
    220  CD2       17.6940  116.8190   94.5830 C.ar  259  TRP259      0.0152
    221  NE1       18.0890  117.2480   96.7490 N.ar  259  TRP259     -0.2442
    222  CE2       17.0980  117.2080   95.8040 C.ar  259  TRP259      0.0810
    223  CE3       16.8880  116.7000   93.4420 C.ar  259  TRP259      0.0012
    224  CZ2       15.7250  117.4750   95.9190 C.ar  259  TRP259      0.0191
    225  CZ3       15.5230  116.9650   93.5540 C.ar  259  TRP259      0.0001
    226  CH2       14.9590  117.3510   94.7860 C.ar  259  TRP259      0.0015
    227  N         22.5820  116.2110   96.3470 N.am  260  ARG260     -0.1977
    228  CA        23.4150  116.9880   97.2360 C.3   260  ARG260      0.1597
    229  C         24.7040  117.2710   96.4550 C.2   260  ARG260      0.2287
    230  O         25.3870  118.2740   96.6720 O.2   260  ARG260     -0.2864
    231  CB        23.7380  116.1750   98.4890 C.3   260  ARG260      0.0334
    232  CG        24.9840  116.6330   99.1920 C.3   260  ARG260      0.0492
    233  CD        25.3440  115.7660  100.3690 C.3   260  ARG260      0.2205
    234  NE        24.4770  116.0210  101.5030 N.pl3 260  ARG260     -0.0865
    235  CZ        24.8370  115.8110  102.7630 C.cat 260  ARG260      0.5346
    236  NH1       26.0510  115.3400  103.0380 N.pl3 260  ARG260      0.1354
    237  NH2       23.9880  116.0840  103.7460 N.pl3 260  ARG260      0.1354
@<TRIPOS>BOND
     1   194   193   ar
     2   194   192   ar
     3   193   191   ar
     4    99    98    2
     5   192   190   ar
     6    58    57   ar
     7    58    56   ar
     8   206   204    1
     9   205   204    1
    10    98    97    1
    11   223   225   ar
    12   223   220   ar
    13    57    55   ar
    14   225   226   ar
    15   191   188   ar
    16   217   214    1
    17   217   218    1
    18    56    54   ar
    19    96    97    1
    20   204   203    1
    21    97   100    1
    22   113   112    2
    23   110   111    1
    24   214   213    1
    25   214   215    1
    26   122   121    2
    27   202   201    2
    28   190   188   ar
    29   190   189   ar
    30   203   200    1
    31   220   218   ar
    32   220   222   ar
    33    55    53   ar
    34   188   186   ar
    35   216   215    2
    36   226   224   ar
    37   112   111    1
    38   218   219   ar
    39   210   209    2
    40   213   209   am
    41   119   120    1
    42   215   227   am
    43    54    53   ar
    44   209   208    1
    45   201   200    1
    46   201   207   am
    47   111   114    1
    48   121   120    1
    49   189   187   ar
    50    53    52    1
    51   102   101   ar
    52   102   104   ar
    53   200   199    1
    54   100   101    1
    55   222   224   ar
    56   222   221   ar
    57   199   197   am
    58   208   207    1
    59   208   211    1
    60   115   114    1
    61   115   116    1
    62   186   187   ar
    63   186   185    1
    64   120   123    1
    65   219   221   ar
    66   101   103   ar
    67   227   228    1
    68    87    88    2
    69    87    86    1
    70   123   124    1
    71   184   183    2
    72   104   105   ar
    73   229   230    2
    74   229   228    1
    75    52    49    1
    76   185   182    1
    77   197   196    1
    78   197   198    2
    79   196   195    1
    80   126   124   ar
    81   126   128   ar
    82   118   116   ar
    83   152   151    2
    84   183   195   am
    85   183   182    1
    86   116   117   ar
    87   228   231    1
    88   124   125   ar
    89   211   212    1
    90    86    89    1
    91    86    85    1
    92   103   105   ar
    93   103   106   ar
    94   105   107   ar
    95   153   150    1
    96    49    48    1
    97    49    50    1
    98   182   181    1
    99   128   127   ar
   100   181   177   am
   101   151   150    1
   102   151   154   am
   103    89    90    1
   104   155   154    1
   105   155   156    1
   106   231   232    1
   107   106   108   ar
   108    91    90   ar
   109    91    93   ar
   110   125   127   ar
   111   150   149    1
   112   107   109   ar
   113    51    50    2
   114    50    59   am
   115   161   160    2
   116    90    92   ar
   117   177   176    1
   118   177   178    2
   119   232   233    1
   120   156   158   am
   121   156   157    2
   122    93    95   ar
   123   176   175    1
   124   176   179    1
   125    83    82    1
   126    65    64    1
   127   158   159    1
   128   108   109   ar
   129    59    60    1
   130   160   159    1
   131    84    82    1
   132   149   142   am
   133    82    79    1
   134    92    94   ar
   135   233   234    1
   136   180   179    1
   137   159   162    1
   138    95    94   ar
   139    60    63    1
   140    60    61    1
   141    64    63    1
   142    64    66    1
   143   142   143    2
   144   142   141    1
   145   147   146    2
   146   165   166    1
   147    19    20    1
   148   163   162    1
   149   168   167    2
   150   234   235    2
   151    14    13    1
   152    14    15    2
   153    22    21    2
   154    61    67   am
   155    61    62    2
   156   162   164    1
   157    20    21    1
   158    20    23    1
   159    79    78    1
   160    79    80    1
   161    13    12    1
   162    13    16    1
   163    78    69   am
   164    67    68    1
   165    17    16    1
   166    81    80    2
   167    26    25   ar
   168   141   140    1
   169   141   144    1
   170    25    27   ar
   171    25    24    1
   172   167   166    1
   173   146   145    1
   174   146   148   am
   175    24    23    1
   176   166   169    1
   177   172   174   ar
   178   172   170   ar
   179    16    18    1
   180   235   236    1
   181   235   237    1
   182    69    68    1
   183    69    70    2
   184    68    71    1
   185   174   173   ar
   186   145   144    1
   187    38    36    1
   188   170   169    1
   189   170   171   ar
   190   173   171   ar
   191    36    35    2
   192    36    37    1
   193    35    34    1
   194    28    29    1
   195    71    72    1
   196    33    34    1
   197    33    32    1
   198   139   137   ar
   199   139   138   ar
   200    32    29    1
   201   137   135   ar
   202    29    30    1
   203   138   136   ar
   204    72    73    1
   205    31    30    2
   206   135   134   ar
   207   136   134   ar
   208   134   133    1
   209    46    45   ar
   210   133   130    1
   211    11     9   ar
   212    11    10   ar
   213    74    73    1
   214    74    75    2
   215     9     7   ar
   216    45    47   ar
   217    45    44    1
   218    10     8   ar
   219    77    75    1
   220    75    76    1
   221    44    43    1
   222     7     6   ar
   223   130   129    1
   224   130   131    1
   225    39    40    1
   226    43    40    1
   227     8     6   ar
   228     6     5    1
   229    42    41    2
   230    40    41    1
   231   131   132    2
   232     5     2    1
   233     2     3    1
   234     2     1    1
   235     4     3    2
