@<TRIPOS>MOLECULE
tmp/1h4sB00.pdb
 171 170 0 0 0
SMALL
GASTEIGER

@<TRIPOS>ATOM
      1  N         -1.7060  106.1070   93.5430 N.3   138  ARG138     -0.1245
      2  CA        -3.1610  106.1600   93.3980 C.3   138  ARG138      0.1563
      3  C         -3.7090  104.8540   93.9530 C.2   138  ARG138      0.2260
      4  O         -3.6160  103.7980   93.3260 O.2   138  ARG138     -0.2867
      5  CB        -3.5790  106.3310   91.9360 C.3   138  ARG138      0.0307
      6  CG        -3.1830  107.6720   91.3430 C.3   138  ARG138      0.0489
      7  CD        -3.8080  107.8840   89.9800 C.3   138  ARG138      0.2205
      8  NE        -3.1810  108.9940   89.2700 N.pl3 138  ARG138     -0.0865
      9  CZ        -3.5620  109.4310   88.0740 C.cat 138  ARG138      0.5346
     10  NH1       -4.5750  108.8530   87.4490 N.pl3 138  ARG138      0.1354
     11  NH2       -2.9200  110.4400   87.4980 N.pl3 138  ARG138      0.1354
     12  N         -5.9100  102.5010   94.0750 N.3   140  GLU140     -0.1245
     13  CA        -7.0640  102.0550   93.3140 C.3   140  GLU140      0.1567
     14  C         -7.4070  100.6180   93.6460 C.2   140  GLU140      0.2260
     15  O         -6.5250   99.8130   93.9410 O.2   140  GLU140     -0.2867
     16  CB        -6.7920  102.1770   91.8160 C.3   140  GLU140      0.0388
     17  CG        -6.3630  103.5640   91.3780 C.3   140  GLU140      0.1160
     18  CD        -6.1230  103.6540   89.8820 C.2   140  GLU140      0.3649
     19  OE1       -5.6000  104.6910   89.4140 O.co2 140  GLU140     -0.2457
     20  OE2       -6.4640  102.6860   89.1710 O.co2 140  GLU140     -0.2457
     21  N          1.4690   96.6890   85.7560 N.3   146  PHE146     -0.1227
     22  CA         1.6490   97.7030   84.7150 C.3   146  PHE146      0.1736
     23  C          0.4060   98.5080   84.3400 C.2   146  PHE146      0.2595
     24  O          0.4370   99.7360   84.3610 O.2   146  PHE146     -0.2718
     25  CB         2.2460   97.0800   83.4590 C.3   146  PHE146      0.0547
     26  CG         3.6420   96.6030   83.6460 C.ar  146  PHE146     -0.0202
     27  CD1        3.9460   95.2500   83.5610 C.ar  146  PHE146     -0.0042
     28  CD2        4.6600   97.5030   83.9310 C.ar  146  PHE146     -0.0042
     29  CE1        5.2490   94.8000   83.7600 C.ar  146  PHE146     -0.0003
     30  CE2        5.9690   97.0600   84.1320 C.ar  146  PHE146     -0.0003
     31  CZ         6.2600   95.7080   84.0470 C.ar  146  PHE146     -0.0000
     32  N         -0.6850   97.8310   84.0040 N.am  147  LEU147     -0.1966
     33  CA        -1.9110   98.5250   83.6180 C.3   147  LEU147      0.1728
     34  C         -2.5070   99.3900   84.7180 C.2   147  LEU147      0.2616
     35  O         -2.9990  100.4920   84.4560 O.2   147  LEU147     -0.2715
     36  CB        -2.9620   97.5200   83.1610 C.3   147  LEU147      0.0311
     37  CG        -2.8650   96.9290   81.7520 C.3   147  LEU147      0.0022
     38  CD1       -1.4190   96.7300   81.3100 C.3   147  LEU147      0.0001
     39  CD2       -3.6190   95.6030   81.7640 C.3   147  LEU147      0.0001
     40  N         -2.4600   98.8970   85.9490 N.am  148  ARG148     -0.1963
     41  CA        -3.0350   99.6290   87.0670 C.3   148  ARG148      0.1729
     42  C         -2.3890   99.2380   88.3990 C.2   148  ARG148      0.2616
     43  O         -2.8080   98.2780   89.0440 O.2   148  ARG148     -0.2715
     44  CB        -4.5440   99.3600   87.0960 C.3   148  ARG148      0.0348
     45  CG        -5.3070   99.9420   88.2660 C.3   148  ARG148      0.0492
     46  CD        -6.7970   99.8950   87.9720 C.3   148  ARG148      0.2205
     47  NE        -7.0960  100.6580   86.7630 N.pl3 148  ARG148     -0.0865
     48  CZ        -8.2470  100.6030   86.0980 C.cat 148  ARG148      0.5346
     49  NH1       -9.2260   99.8120   86.5250 N.pl3 148  ARG148      0.1354
     50  NH2       -8.4170  101.3360   85.0000 N.pl3 148  ARG148      0.1354
     51  N         -1.3780   99.9940   88.8130 N.am  149  THR149     -0.1951
     52  CA        -0.6800   99.7080   90.0560 C.3   149  THR149      0.1897
     53  C         -0.7720  100.8660   91.0530 C.2   149  THR149      0.2313
     54  O         -0.8420  102.0240   90.6470 O.2   149  THR149     -0.2863
     55  CB         0.7960   99.4070   89.7630 C.3   149  THR149      0.1794
     56  OG1        1.3290  100.4400   88.9210 O.3   149  THR149     -0.2208
     57  CG2        0.9430   98.0660   89.0530 C.3   149  THR149      0.0378
     58  N          3.1580  103.9410   90.4020 N.3   152  PHE152     -0.1241
     59  CA         3.5890  103.6600   89.0430 C.3   152  PHE152      0.1605
     60  C          4.4580  104.7620   88.4930 C.2   152  PHE152      0.2264
     61  O          4.3420  105.9160   88.8900 O.2   152  PHE152     -0.2867
     62  CB         2.3890  103.4260   88.1310 C.3   152  PHE152      0.0534
     63  CG         1.4730  104.6090   88.0060 C.ar  152  PHE152     -0.0203
     64  CD1        1.6080  105.4990   86.9450 C.ar  152  PHE152     -0.0042
     65  CD2        0.4490  104.8170   88.9330 C.ar  152  PHE152     -0.0042
     66  CE1        0.7310  106.5830   86.8050 C.ar  152  PHE152     -0.0003
     67  CE2       -0.4310  105.8930   88.8050 C.ar  152  PHE152     -0.0003
     68  CZ        -0.2910  106.7770   87.7380 C.ar  152  PHE152     -0.0000
     69  N          5.8470  107.1380   85.4440 N.3   154  TRP154     -0.1241
     70  CA         5.2880  107.7340   84.2560 C.3   154  TRP154      0.1605
     71  C          6.0450  108.9990   83.9610 C.2   154  TRP154      0.2264
     72  O          7.0560  109.3100   84.5890 O.2   154  TRP154     -0.2867
     73  CB         3.8100  108.0700   84.4710 C.3   154  TRP154      0.0550
     74  CG         3.5620  109.2660   85.3480 C.ar  154  TRP154      0.0003
     75  CD1        4.4730  109.9210   86.1280 C.ar  154  TRP154      0.0946
     76  CD2        2.3080  109.9160   85.5750 C.ar  154  TRP154      0.0152
     77  NE1        3.8650  110.9340   86.8240 N.ar  154  TRP154     -0.2442
     78  CE2        2.5360  110.9530   86.5070 C.ar  154  TRP154      0.0810
     79  CE3        1.0100  109.7220   85.0840 C.ar  154  TRP154      0.0012
     80  CZ2        1.5170  111.7890   86.9570 C.ar  154  TRP154      0.0191
     81  CZ3       -0.0080  110.5590   85.5340 C.ar  154  TRP154      0.0001
     82  CH2        0.2530  111.5780   86.4620 C.ar  154  TRP154      0.0015
     83  N        -10.5370  113.6360   82.0840 N.3   201  PHE201     -0.1241
     84  CA        -9.6870  113.8090   83.2600 C.3   201  PHE201      0.1605
     85  C        -10.2970  114.8100   84.2420 C.2   201  PHE201      0.2264
     86  O        -10.7200  115.9010   83.8480 O.2   201  PHE201     -0.2867
     87  CB        -8.3080  114.3030   82.8130 C.3   201  PHE201      0.0534
     88  CG        -7.3490  114.5730   83.9410 C.ar  201  PHE201     -0.0203
     89  CD1       -6.7760  113.5250   84.6480 C.ar  201  PHE201     -0.0042
     90  CD2       -6.9860  115.8820   84.2680 C.ar  201  PHE201     -0.0042
     91  CE1       -5.8500  113.7670   85.6590 C.ar  201  PHE201     -0.0003
     92  CE2       -6.0580  116.1390   85.2810 C.ar  201  PHE201     -0.0003
     93  CZ        -5.4900  115.0760   85.9740 C.ar  201  PHE201     -0.0000
     94  N         -6.4620  102.3680   77.1280 N.3   221  GLN221     -0.1231
     95  CA        -6.0360  103.7340   76.8900 C.3   221  GLN221      0.1698
     96  C         -4.5530  103.7310   77.2790 C.2   221  GLN221      0.2592
     97  O         -4.2020  103.4140   78.4280 O.2   221  GLN221     -0.2718
     98  CB        -6.8780  104.6620   77.7660 C.3   221  GLN221      0.0381
     99  CG        -6.4020  106.0810   77.8950 C.3   221  GLN221      0.0905
    100  CD        -5.3690  106.2220   78.9710 C.2   221  GLN221      0.2608
    101  OE1       -4.1690  106.0870   78.7220 O.2   221  GLN221     -0.2717
    102  NE2       -5.8280  106.4710   80.1910 N.am  221  GLN221     -0.0878
    103  N         -3.6840  104.0570   76.3220 N.am  222  ALA222     -0.1966
    104  CA        -2.2410  104.0310   76.5600 C.3   222  ALA222      0.1728
    105  C         -1.5880  105.3860   76.7740 C.2   222  ALA222      0.2617
    106  O         -0.3870  105.4620   77.0230 O.2   222  ALA222     -0.2715
    107  CB        -1.5400  103.3020   75.4090 C.3   222  ALA222      0.0334
    108  N         -2.3650  106.4540   76.6790 N.am  223  GLY223     -0.1940
    109  CA        -1.8000  107.7800   76.8640 C.3   223  GLY223      0.2014
    110  C         -2.8660  108.8480   76.7460 C.2   223  GLY223      0.2639
    111  O         -3.7970  108.7320   75.9490 O.2   223  GLY223     -0.2714
    112  N         -2.7360  109.9020   77.5340 N.am  224  THR224     -0.1950
    113  CA        -3.7250  110.9630   77.5000 C.3   224  THR224      0.1897
    114  C         -3.0960  112.3410   77.4680 C.2   224  THR224      0.2313
    115  O         -1.9820  112.5390   77.9520 O.2   224  THR224     -0.2863
    116  CB        -4.6550  110.8730   78.7230 C.3   224  THR224      0.1794
    117  OG1       -3.8660  110.8830   79.9200 O.3   224  THR224     -0.2208
    118  CG2       -5.4760  109.5890   78.6720 C.3   224  THR224      0.0378
    119  N         -4.4890  116.4110   78.0480 N.3   226  HIS226     -0.1241
    120  CA        -5.6040  117.2640   78.4390 C.3   226  HIS226      0.1621
    121  C         -5.4730  118.7620   78.2490 C.2   226  HIS226      0.2264
    122  O         -4.4100  119.3510   78.4720 O.2   226  HIS226     -0.2867
    123  CB        -5.9140  117.0360   79.9090 C.3   226  HIS226      0.0745
    124  CG        -5.7060  115.6260   80.3560 C.ar  226  HIS226      0.0817
    125  ND1       -6.5610  114.6000   80.0140 N.ar  226  HIS226     -0.2268
    126  CD2       -4.7410  115.0710   81.1270 C.ar  226  HIS226      0.1154
    127  CE1       -6.1330  113.4750   80.5580 C.ar  226  HIS226      0.1986
    128  NE2       -5.0320  113.7340   81.2390 N.ar  226  HIS226     -0.2212
    129  N          0.3500  112.6940   79.9410 N.3   256  GLY256     -0.1210
    130  CA         1.1650  111.6810   80.5730 C.3   256  GLY256      0.1956
    131  C          1.0160  110.2840   80.0100 C.2   256  GLY256      0.2612
    132  O         -0.0330  109.9040   79.4850 O.2   256  GLY256     -0.2717
    133  N          2.0930  109.5200   80.1310 N.am  257  LEU257     -0.1965
    134  CA         2.1290  108.1460   79.6790 C.3   257  LEU257      0.1728
    135  C          2.8770  107.3760   80.7710 C.2   257  LEU257      0.2617
    136  O          4.0140  107.7080   81.0860 O.2   257  LEU257     -0.2715
    137  CB         2.8520  108.0810   78.3290 C.3   257  LEU257      0.0311
    138  CG         3.0480  106.7080   77.6970 C.3   257  LEU257      0.0022
    139  CD1        3.2900  106.8760   76.2100 C.3   257  LEU257      0.0001
    140  CD2        4.2120  105.9970   78.3540 C.3   257  LEU257      0.0001
    141  N          2.2290  106.3670   81.3550 N.am  258  SER258     -0.1936
    142  CA         2.8220  105.5560   82.4290 C.3   258  SER258      0.2055
    143  C          3.4020  104.2300   81.9340 C.2   258  SER258      0.2643
    144  O          3.3490  103.9320   80.7380 O.2   258  SER258     -0.2714
    145  CB         1.7730  105.2510   83.4890 C.3   258  SER258      0.2130
    146  OG         0.8220  104.3390   82.9820 O.3   258  SER258     -0.2179
    147  N          3.9420  103.4250   82.8540 N.am  259  TRP259     -0.1959
    148  CA         4.5170  102.1560   82.4390 C.3   259  TRP259      0.1771
    149  C          3.4330  101.2040   81.9860 C.2   259  TRP259      0.2619
    150  O          3.6990  100.0730   81.5710 O.2   259  TRP259     -0.2715
    151  CB         5.4100  101.5270   83.5210 C.3   259  TRP259      0.0590
    152  CG         4.7960  101.2230   84.8390 C.ar  259  TRP259      0.0006
    153  CD1        3.4780  100.9830   85.1110 C.ar  259  TRP259      0.0946
    154  CD2        5.5020  101.0290   86.0660 C.ar  259  TRP259      0.0152
    155  NE1        3.3180  100.6490   86.4400 N.ar  259  TRP259     -0.2442
    156  CE2        4.5470  100.6730   87.0490 C.ar  259  TRP259      0.0810
    157  CE3        6.8520  101.1260   86.4340 C.ar  259  TRP259      0.0012
    158  CZ2        4.9030  100.4020   88.3810 C.ar  259  TRP259      0.0191
    159  CZ3        7.2090  100.8580   87.7610 C.ar  259  TRP259      0.0001
    160  CH2        6.2330  100.5030   88.7160 C.ar  259  TRP259      0.0015
    161  N          2.2000  101.6860   82.0420 N.am  260  ARG260     -0.1977
    162  CA         1.0760  100.9070   81.5590 C.3   260  ARG260      0.1597
    163  C          1.3770  100.6000   80.0890 C.2   260  ARG260      0.2287
    164  O          0.9510   99.5880   79.5370 O.2   260  ARG260     -0.2864
    165  CB        -0.2030  101.7290   81.6520 C.3   260  ARG260      0.0334
    166  CG        -1.2900  101.2390   80.7350 C.3   260  ARG260      0.0492
    167  CD        -2.5280  102.1090   80.7980 C.3   260  ARG260      0.2205
    168  NE        -3.3080  101.8640   82.0050 N.pl3 260  ARG260     -0.0865
    169  CZ        -4.6130  102.0960   82.0900 C.cat 260  ARG260      0.5346
    170  NH1       -5.2660  102.5770   81.0390 N.pl3 260  ARG260      0.1354
    171  NH2       -5.2680  101.8340   83.2130 N.pl3 260  ARG260      0.1354
@<TRIPOS>BOND
     1   107   104    1
     2   111   110    2
     3   139   138    1
     4   103   104    1
     5   103    96   am
     6   104   105    1
     7   108   105   am
     8   108   109    1
     9   110   109    1
    10   110   112   am
    11   105   106    2
    12    95    94    1
    13    95    96    1
    14    95    98    1
    15    96    97    2
    16   114   113    1
    17   114   115    2
    18   113   112    1
    19   113   116    1
    20   138   137    1
    21   138   140    1
    22    98    99    1
    23    99   100    1
    24   119   120    1
    25   121   120    1
    26   121   122    2
    27   137   134    1
    28   120   123    1
    29   118   116    1
    30   101   100    2
    31   116   117    1
    32   100   102   am
    33   132   131    2
    34   164   163    2
    35   134   133    1
    36   134   135    1
    37   123   124    1
    38   129   130    1
    39   131   133   am
    40   131   130    1
    41   125   124   ar
    42   125   127   ar
    43   163   162    1
    44   124   126   ar
    45   127   128   ar
    46   166   167    1
    47   166   165    1
    48   144   143    2
    49   135   136    2
    50   135   141   am
    51   167   168    1
    52   170   169    1
    53   126   128   ar
    54    38    37    1
    55   141   142    1
    56   162   165    1
    57   162   161    1
    58   150   149    2
    59    37    39    1
    60    37    36    1
    61   143   142    1
    62   143   147   am
    63   149   161   am
    64   149   148    1
    65   168   169    2
    66    83    84    1
    67   169   171    1
    68   142   145    1
    69   148   147    1
    70   148   151    1
    71    87    84    1
    72    87    88    1
    73   146   145    1
    74    36    33    1
    75    84    85    1
    76    25    26    1
    77    25    22    1
    78   151   152    1
    79    27    26   ar
    80    27    29   ar
    81    33    32    1
    82    33    34    1
    83    26    28   ar
    84    29    31   ar
    85    86    85    2
    86    28    30   ar
    87    88    90   ar
    88    88    89   ar
    89    71    70    1
    90    71    72    2
    91    32    23   am
    92    31    30   ar
    93    70    73    1
    94    70    69    1
    95    90    92   ar
    96    23    24    2
    97    23    22    1
    98    35    34    2
    99    73    74    1
   100    89    91   ar
   101    22    21    1
   102    34    40   am
   103   152   153   ar
   104   152   154   ar
   105    50    48    1
   106    79    81   ar
   107    79    76   ar
   108   153   155   ar
   109    92    93   ar
   110    74    76   ar
   111    74    75   ar
   112    81    82   ar
   113    76    78   ar
   114    91    93   ar
   115    40    41    1
   116   154   157   ar
   117   154   156   ar
   118    48    49    1
   119    48    47    2
   120    75    77   ar
   121   157   159   ar
   122   155   156   ar
   123    82    80   ar
   124    78    77   ar
   125    78    80   ar
   126    47    46    1
   127    66    64   ar
   128    66    68   ar
   129    64    63   ar
   130   156   158   ar
   131    41    44    1
   132    41    42    1
   133    44    45    1
   134    10     9    1
   135    11     9    1
   136    68    67   ar
   137   159   160   ar
   138    46    45    1
   139    63    62    1
   140    63    65   ar
   141     9     8    2
   142    62    59    1
   143   158   160   ar
   144    42    51   am
   145    42    43    2
   146    60    61    2
   147    60    59    1
   148    67    65   ar
   149    51    52    1
   150    56    55    1
   151    59    58    1
   152    57    55    1
   153    20    18   ar
   154     8     7    1
   155    19    18   ar
   156    55    52    1
   157    18    17    1
   158     7     6    1
   159    52    53    1
   160    54    53    2
   161     6     5    1
   162    17    16    1
   163    16    13    1
   164     5     2    1
   165    13    14    1
   166    13    12    1
   167     4     3    2
   168     2     1    1
   169     2     3    1
   170    14    15    2
