@<TRIPOS>MOLECULE
tmp/1h4tA00.pdb
 112 109 0 0 0
SMALL
GASTEIGER

@<TRIPOS>ATOM
      1  N         40.3710   19.3580  110.8560 N.3    98  THR98      -0.1218
      2  CA        41.6710   18.9600  110.3070 C.3    98  THR98       0.1862
      3  C         41.6050   19.0790  108.7710 C.2    98  THR98       0.2287
      4  O         40.5850   18.7610  108.1610 O.2    98  THR98      -0.2866
      5  CB        42.0230   17.5210  110.7120 C.3    98  THR98       0.1770
      6  OG1       43.2740   17.1440  110.1190 O.3    98  THR98      -0.2211
      7  CG2       40.9230   16.5720  110.2770 C.3    98  THR98       0.0375
      8  N         42.8360   17.3750  106.1150 N.3   100  GLU100     -0.1245
      9  CA        43.1930   16.2190  105.2810 C.3   100  GLU100      0.1567
     10  C         42.4340   16.2010  103.9440 C.2   100  GLU100      0.2260
     11  O         43.0380   16.1570  102.8760 O.2   100  GLU100     -0.2867
     12  CB        42.8880   14.9090  106.0290 C.3   100  GLU100      0.0388
     13  CG        43.2020   14.9160  107.5280 C.3   100  GLU100      0.1160
     14  CD        44.6830   14.9030  107.8080 C.2   100  GLU100      0.3649
     15  OE1       45.0660   14.9530  108.9870 O.co2 100  GLU100     -0.2457
     16  OE2       45.4660   14.8360  106.8440 O.co2 100  GLU100     -0.2457
     17  N         37.4740   21.3800  117.1150 N.3   129  ARG129     -0.1245
     18  CA        37.0640   20.0440  117.5080 C.3   129  ARG129      0.1563
     19  C         36.3190   20.3090  118.8050 C.2   129  ARG129      0.2260
     20  O         36.9110   20.3750  119.8810 O.2   129  ARG129     -0.2867
     21  CB        38.2800   19.1570  117.7290 C.3   129  ARG129      0.0307
     22  CG        39.1720   19.1080  116.5210 C.3   129  ARG129      0.0489
     23  CD        40.2600   18.0520  116.6260 C.3   129  ARG129      0.2205
     24  NE        41.2470   18.2200  115.5610 N.pl3 129  ARG129     -0.0865
     25  CZ        42.3010   17.4350  115.3760 C.cat 129  ARG129      0.5346
     26  NH1       42.5130   16.4120  116.1860 N.pl3 129  ARG129      0.1354
     27  NH2       43.1530   17.6830  114.3880 N.pl3 129  ARG129      0.1354
     28  N         47.3840   25.7210  115.6760 N.3   145  TRP145     -0.1241
     29  CA        48.3630   24.6720  115.4710 C.3   145  TRP145      0.1605
     30  C         49.0530   24.8390  114.1280 C.2   145  TRP145      0.2264
     31  O         48.9550   25.8730  113.4720 O.2   145  TRP145     -0.2867
     32  CB        47.6850   23.2930  115.5440 C.3   145  TRP145      0.0550
     33  CG        46.8990   22.9030  114.3220 C.ar  145  TRP145      0.0003
     34  CD1       46.4690   23.7290  113.3170 C.ar  145  TRP145      0.0946
     35  CD2       46.4200   21.5940  113.9910 C.ar  145  TRP145      0.0152
     36  NE1       45.7520   23.0170  112.3850 N.ar  145  TRP145     -0.2442
     37  CE2       45.7030   21.7040  112.7710 C.ar  145  TRP145      0.0810
     38  CE3       46.5170   20.3370  114.6080 C.ar  145  TRP145      0.0012
     39  CZ2       45.0940   20.6000  112.1500 C.ar  145  TRP145      0.0191
     40  CZ3       45.9050   19.2300  113.9840 C.ar  145  TRP145      0.0001
     41  CH2       45.2040   19.3770  112.7700 C.ar  145  TRP145      0.0015
     42  N         49.6510   22.2430  110.7550 N.3   147  GLU147     -0.1245
     43  CA        49.3780   20.9140  110.2250 C.3   147  GLU147      0.1567
     44  C         50.0970   20.7380  108.8990 C.2   147  GLU147      0.2260
     45  O         49.8430   21.4680  107.9330 O.2   147  GLU147     -0.2867
     46  CB        47.8760   20.6660  110.0720 C.3   147  GLU147      0.0388
     47  CG        47.1400   21.6870  109.2610 C.3   147  GLU147      0.1160
     48  CD        45.6890   21.3070  109.0810 C.2   147  GLU147      0.3649
     49  OE1       45.4310   20.1390  108.7170 O.co2 147  GLU147     -0.2457
     50  OE2       44.8120   22.1720  109.2890 O.co2 147  GLU147     -0.2457
     51  N         51.2360   18.5200  105.5670 N.3   149  HIS149     -0.1241
     52  CA        50.7030   17.5100  104.6630 C.3   149  HIS149      0.1621
     53  C         51.6710   17.3540  103.5010 C.2   149  HIS149      0.2264
     54  O         52.1200   18.3520  102.9140 O.2   149  HIS149     -0.2867
     55  CB        49.3350   17.9470  104.1330 C.3   149  HIS149      0.0745
     56  CG        48.3280   18.2060  105.2060 C.ar  149  HIS149      0.0817
     57  ND1       47.5150   17.2160  105.7190 N.ar  149  HIS149     -0.2268
     58  CD2       48.0210   19.3370  105.8850 C.ar  149  HIS149      0.1154
     59  CE1       46.7480   17.7290  106.6670 C.ar  149  HIS149      0.1986
     60  NE2       47.0360   19.0140  106.7880 N.ar  149  HIS149     -0.2212
     61  N         45.7490    7.5930  114.4710 N.3   192  PHE192     -0.1241
     62  CA        44.9440    8.5920  113.7830 C.3   192  PHE192      0.1605
     63  C         43.9890    7.9560  112.7840 C.2   192  PHE192      0.2264
     64  O         44.4080    7.1940  111.9120 O.2   192  PHE192     -0.2867
     65  CB        45.8630    9.5800  113.0590 C.3   192  PHE192      0.0534
     66  CG        45.1470   10.7640  112.4820 C.ar  192  PHE192     -0.0203
     67  CD1       44.5070   11.6760  113.3110 C.ar  192  PHE192     -0.0042
     68  CD2       45.1200   10.9750  111.1080 C.ar  192  PHE192     -0.0042
     69  CE1       43.8500   12.7840  112.7770 C.ar  192  PHE192     -0.0003
     70  CE2       44.4650   12.0800  110.5660 C.ar  192  PHE192     -0.0003
     71  CZ        43.8300   12.9870  111.4020 C.ar  192  PHE192     -0.0000
     72  N         52.4500   14.6380  116.6940 N.3   215  THR215     -0.1218
     73  CA        52.2800   13.3850  115.9420 C.3   215  THR215      0.1862
     74  C         52.6110   13.5330  114.4710 C.2   215  THR215      0.2287
     75  O         52.5270   14.6280  113.9010 O.2   215  THR215     -0.2866
     76  CB        50.8380   12.8330  115.9900 C.3   215  THR215      0.1770
     77  OG1       49.9120   13.9240  116.0190 O.3   215  THR215     -0.2211
     78  CG2       50.6380   11.9330  117.1860 C.3   215  THR215      0.0375
     79  N         51.8360   11.0390  110.9980 N.3   217  HIS217     -0.1241
     80  CA        51.1600    9.8380  110.5270 C.3   217  HIS217      0.1621
     81  C         51.5670    9.4200  109.1210 C.2   217  HIS217      0.2264
     82  O         51.9070   10.2570  108.2760 O.2   217  HIS217     -0.2867
     83  CB        49.6460   10.0510  110.5070 C.3   217  HIS217      0.0745
     84  CG        49.1260   10.8920  111.6310 C.ar  217  HIS217      0.0817
     85  ND1       49.0090   10.4280  112.9260 N.ar  217  HIS217     -0.2268
     86  CD2       48.6750   12.1700  111.6480 C.ar  217  HIS217      0.1154
     87  CE1       48.5070   11.3840  113.6880 C.ar  217  HIS217      0.1986
     88  NE2       48.2960   12.4510  112.9370 N.ar  217  HIS217     -0.2212
     89  N         51.0340   13.1600  107.2360 N.3   245  SER245     -0.1202
     90  CA        50.3350   14.2330  107.9280 C.3   245  SER245      0.2020
     91  C         50.9880   14.3770  109.3020 C.2   245  SER245      0.2619
     92  O         51.3080   13.3800  109.9520 O.2   245  SER245     -0.2717
     93  CB        48.8600   13.8430  108.0660 C.3   245  SER245      0.2103
     94  OG        48.1090   14.8610  108.6610 O.3   245  SER245     -0.2182
     95  N         51.1950   15.6090  109.7450 N.am  246  TRP246     -0.1961
     96  CA        51.8280   15.8320  111.0400 C.3   246  TRP246      0.1771
     97  C         51.3930   17.1390  111.6970 C.2   246  TRP246      0.2620
     98  O         51.3420   18.1890  111.0520 O.2   246  TRP246     -0.2715
     99  CB        53.3620   15.8010  110.8940 C.3   246  TRP246      0.0590
    100  CG        53.8720   16.1250  109.5080 C.ar  246  TRP246      0.0006
    101  CD1       53.8660   15.3010  108.4150 C.ar  246  TRP246      0.0946
    102  CD2       54.4460   17.3670  109.0690 C.ar  246  TRP246      0.0152
    103  NE1       54.3990   15.9520  107.3260 N.ar  246  TRP246     -0.2442
    104  CE2       54.7610   17.2200  107.6990 C.ar  246  TRP246      0.0810
    105  CE3       54.7250   18.5870  109.7000 C.ar  246  TRP246      0.0012
    106  CZ2       55.3400   18.2500  106.9510 C.ar  246  TRP246      0.0191
    107  CZ3       55.3010   19.6080  108.9570 C.ar  246  TRP246      0.0001
    108  CH2       55.6020   19.4310  107.5950 C.ar  246  TRP246      0.0015
    109  N         51.0860   17.0760  112.9890 N.am  247  GLY247     -0.1954
    110  CA        50.6530   18.2780  113.6780 C.3   247  GLY247      0.1869
    111  C         51.2270   18.5120  115.0650 C.2   247  GLY247      0.2309
    112  O         51.6870   17.5830  115.7330 O.2   247  GLY247     -0.2863
@<TRIPOS>BOND
     1    11    10    2
     2    54    53    2
     3    53    52    1
     4    10     9    1
     5    55    52    1
     6    55    56    1
     7    52    51    1
     8    56    57   ar
     9    56    58   ar
    10     9    12    1
    11     9     8    1
    12    57    59   ar
    13    58    60   ar
    14    12    13    1
    15    59    60   ar
    16    16    14   ar
    17   106   108   ar
    18   106   104   ar
    19    89    90    1
    20   103   104   ar
    21   103   101   ar
    22    13    14    1
    23   108   107   ar
    24   104   102   ar
    25    14    15   ar
    26    90    93    1
    27    90    91    1
    28    45    44    2
    29    93    94    1
    30     4     3    2
    31    82    81    2
    32   101   100   ar
    33    49    48   ar
    34     3     2    1
    35    44    43    1
    36   107   105   ar
    37   102   100   ar
    38   102   105   ar
    39    48    47    1
    40    48    50   ar
    41    81    80    1
    42    47    46    1
    43    91    95   am
    44    91    92    2
    45   100    99    1
    46    95    96    1
    47    46    43    1
    48     6     5    1
    49    43    42    1
    50     7     5    1
    51     2     5    1
    52     2     1    1
    53    83    80    1
    54    83    84    1
    55    80    79    1
    56    70    68   ar
    57    70    71   ar
    58    99    96    1
    59    96    97    1
    60    98    97    2
    61    68    66   ar
    62    71    69   ar
    63    84    86   ar
    64    84    85   ar
    65    86    88   ar
    66    97   109   am
    67    64    63    2
    68    39    41   ar
    69    39    37   ar
    70    36    37   ar
    71    36    34   ar
    72    66    65    1
    73    66    67   ar
    74    41    40   ar
    75    37    35   ar
    76    69    67   ar
    77    63    62    1
    78    85    87   ar
    79    88    87   ar
    80   109   110    1
    81    65    62    1
    82    34    33   ar
    83    31    30    2
    84   110   111    1
    85    62    61    1
    86    75    74    2
    87    40    38   ar
    88    35    33   ar
    89    35    38   ar
    90    30    29    1
    91    33    32    1
    92    27    25    1
    93    74    73    1
    94   111   112    2
    95    25    24    2
    96    25    26    1
    97    29    32    1
    98    29    28    1
    99    24    23    1
   100    73    76    1
   101    73    72    1
   102    76    77    1
   103    76    78    1
   104    22    23    1
   105    22    21    1
   106    17    18    1
   107    18    21    1
   108    18    19    1
   109    19    20    2
