@<TRIPOS>MOLECULE
tmp/1h4wA00.pdb
 130 130 0 0 0
SMALL
GASTEIGER

@<TRIPOS>ATOM
      1  N         42.3910   27.8800   43.6370 N.3    40  HIS40      -0.1241
      2  CA        42.6770   27.5530   42.2470 C.3    40  HIS40       0.1621
      3  C         43.8610   26.5990   42.1130 C.2    40  HIS40       0.2264
      4  O         44.1900   26.1570   41.0140 O.2    40  HIS40      -0.2867
      5  CB        42.8760   28.8210   41.3940 C.3    40  HIS40       0.0745
      6  CG        44.2190   29.4690   41.5340 C.ar   40  HIS40       0.0817
      7  ND1       44.4560   30.5180   42.3970 N.ar   40  HIS40      -0.2268
      8  CD2       45.3820   29.2550   40.8740 C.ar   40  HIS40       0.1154
      9  CE1       45.7060   30.9240   42.2610 C.ar   40  HIS40       0.1986
     10  NE2       46.2890   30.1750   41.3430 N.ar   40  HIS40      -0.2212
     11  N         56.9940   41.6520   41.2440 N.3   171  ASP171     -0.1225
     12  CA        55.6630   41.0730   41.4190 C.3   171  ASP171      0.1805
     13  C         55.7820   39.5640   41.6580 C.2   171  ASP171      0.2598
     14  O         56.8660   38.9930   41.5220 O.2   171  ASP171     -0.2718
     15  CB        54.8840   41.3450   40.1190 C.3   171  ASP171      0.1424
     16  CG        53.3940   41.0790   40.2250 C.2   171  ASP171      0.3668
     17  OD1       52.8730   40.8440   41.3370 O.co2 171  ASP171     -0.2456
     18  OD2       52.7350   41.1230   39.1590 O.co2 171  ASP171     -0.2456
     19  N         54.6820   38.9250   42.0460 N.am  172  SER172     -0.1938
     20  CA        54.6920   37.4700   42.1970 C.3   172  SER172      0.2055
     21  C         54.2760   36.9830   40.8050 C.2   172  SER172      0.2643
     22  O         53.9720   37.8040   39.9380 O.2   172  SER172     -0.2714
     23  CB        53.6920   37.0090   43.2700 C.3   172  SER172      0.2130
     24  OG        52.3910   37.5160   43.0320 O.3   172  SER172     -0.2179
     25  N         54.2440   35.6760   40.5730 N.am  173  CYS173     -0.1953
     26  CA        53.8870   35.1910   39.2420 C.3   173  CYS173      0.1843
     27  C         53.3980   33.7410   39.2690 C.2   173  CYS173      0.2625
     28  O         53.1800   33.1700   40.3380 O.2   173  CYS173     -0.2714
     29  CB        55.1190   35.3390   38.3360 C.3   173  CYS173      0.0997
     30  SG        54.8630   35.2940   36.5270 S.3   173  CYS173     -0.0797
     31  N         53.2260   33.1570   38.0870 N.am  174  GLN174     -0.1977
     32  CA        52.7790   31.7710   37.9600 C.3   174  GLN174      0.1601
     33  C         53.5550   30.8470   38.8970 C.2   174  GLN174      0.2287
     34  O         54.7820   30.9230   38.9890 O.2   174  GLN174     -0.2864
     35  CB        52.9660   31.2820   36.5170 C.3   174  GLN174      0.0394
     36  CG        51.7280   31.3440   35.6300 C.3   174  GLN174      0.0908
     37  CD        51.2140   32.7520   35.4110 C.2   174  GLN174      0.2608
     38  OE1       51.9620   33.6470   35.0160 O.2   174  GLN174     -0.2717
     39  NE2       49.9250   32.9500   35.6520 N.am  174  GLN174     -0.0878
     40  N         51.4960   31.1360   43.1490 N.3   177  SER177     -0.1217
     41  CA        50.0940   30.9830   43.5310 C.3   177  SER177      0.1889
     42  C         49.9150   30.1350   44.7840 C.2   177  SER177      0.2288
     43  O         50.5500   29.0860   44.9270 O.2   177  SER177     -0.2866
     44  CB        49.3080   30.3310   42.3850 C.3   177  SER177      0.2089
     45  OG        49.3980   31.0910   41.1930 O.3   177  SER177     -0.2183
     46  N         48.7510   34.3710   47.4900 N.3   191  VAL191     -0.1231
     47  CA        48.9810   34.7310   46.0890 C.3   191  VAL191      0.1692
     48  C         47.8250   34.1820   45.2510 C.2   191  VAL191      0.2593
     49  O         47.5880   32.9730   45.2260 O.2   191  VAL191     -0.2718
     50  CB        50.3120   34.1430   45.5670 C.3   191  VAL191      0.0266
     51  CG1       50.5240   34.5670   44.1160 C.3   191  VAL191      0.0020
     52  CG2       51.4720   34.6210   46.4300 C.3   191  VAL191      0.0020
     53  N         47.1130   35.0670   44.5580 N.am  192  SER192     -0.1938
     54  CA        45.9600   34.6400   43.7720 C.3   192  SER192      0.2055
     55  C         46.0830   34.8460   42.2620 C.2   192  SER192      0.2643
     56  O         46.1710   33.8770   41.5050 O.2   192  SER192     -0.2714
     57  CB        44.7020   35.3440   44.2920 C.3   192  SER192      0.2130
     58  OG        43.5290   34.8530   43.6600 O.3   192  SER192     -0.2179
     59  N         46.0930   36.0980   41.8180 N.am  193  TRP193     -0.1959
     60  CA        46.1820   36.3550   40.3860 C.3   193  TRP193      0.1771
     61  C         46.7030   37.7340   40.0100 C.2   193  TRP193      0.2620
     62  O         47.1040   38.5230   40.8630 O.2   193  TRP193     -0.2715
     63  CB        44.8100   36.1550   39.7320 C.3   193  TRP193      0.0590
     64  CG        43.7480   37.1090   40.2190 C.ar  193  TRP193      0.0006
     65  CD1       43.0060   36.9960   41.3590 C.ar  193  TRP193      0.0946
     66  CD2       43.3140   38.3180   39.5770 C.ar  193  TRP193      0.0152
     67  NE1       42.1360   38.0570   41.4660 N.ar  193  TRP193     -0.2442
     68  CE2       42.3050   38.8830   40.3870 C.ar  193  TRP193      0.0810
     69  CE3       43.6830   38.9780   38.3930 C.ar  193  TRP193      0.0012
     70  CZ2       41.6550   40.0790   40.0540 C.ar  193  TRP193      0.0191
     71  CZ3       43.0370   40.1690   38.0610 C.ar  193  TRP193      0.0001
     72  CH2       42.0330   40.7060   38.8920 C.ar  193  TRP193      0.0015
     73  N         46.6830   37.9990   38.7050 N.am  194  GLY194     -0.1940
     74  CA        47.1240   39.2710   38.1640 C.3   194  GLY194      0.2014
     75  C         47.1830   39.1460   36.6540 C.2   194  GLY194      0.2639
     76  O         47.1010   38.0360   36.1340 O.2   194  GLY194     -0.2714
     77  N         47.2890   40.2680   35.9490 N.am  195  HIS195     -0.1959
     78  CA        47.3930   40.2360   34.4920 C.3   195  HIS195      0.1787
     79  C         48.8800   40.3290   34.1740 C.2   195  HIS195      0.2621
     80  O         49.5130   41.3520   34.4360 O.2   195  HIS195     -0.2715
     81  CB        46.6440   41.4110   33.8580 C.3   195  HIS195      0.0785
     82  CG        45.1530   41.2910   33.9350 C.ar  195  HIS195      0.0821
     83  ND1       44.5120   40.0890   34.1480 N.ar  195  HIS195     -0.2267
     84  CD2       44.1750   42.2160   33.7800 C.ar  195  HIS195      0.1154
     85  CE1       43.2050   40.2780   34.1210 C.ar  195  HIS195      0.1986
     86  NE2       42.9740   41.5600   33.8980 N.ar  195  HIS195     -0.2212
     87  N         49.4320   39.2570   33.6150 N.am  196  GLY196     -0.1940
     88  CA        50.8500   39.2290   33.3170 C.3   196  GLY196      0.2014
     89  C         51.5890   39.1440   34.6400 C.2   196  GLY196      0.2639
     90  O         51.0070   38.7410   35.6500 O.2   196  GLY196     -0.2714
     91  N         52.8640   39.5160   34.6360 N.am  197  CYS197     -0.1967
     92  CA        53.6760   39.5110   35.8460 C.3   197  CYS197      0.1712
     93  C         54.6340   40.6860   35.8170 C.2   197  CYS197      0.2296
     94  O         55.4520   40.8060   34.9050 O.2   197  CYS197     -0.2864
     95  CB        54.4790   38.2210   35.9590 C.3   197  CYS197      0.0983
     96  SG        53.4720   36.7300   36.1930 S.3   197  CYS197     -0.0798
     97  N         49.6660   46.8820   36.7250 N.3   202  ARG202     -0.1245
     98  CA        48.9970   45.6010   36.9440 C.3   202  ARG202      0.1563
     99  C         49.6470   44.8740   38.1230 C.2   202  ARG202      0.2260
    100  O         50.3770   43.8970   37.9460 O.2   202  ARG202     -0.2867
    101  CB        49.0710   44.7250   35.6840 C.3   202  ARG202      0.0307
    102  CG        48.3620   45.3080   34.4570 C.3   202  ARG202      0.0489
    103  CD        46.8730   45.5010   34.7070 C.3   202  ARG202      0.2205
    104  NE        46.2050   46.2350   33.6310 N.pl3 202  ARG202     -0.0865
    105  CZ        45.6410   45.6770   32.5630 C.cat 202  ARG202      0.5346
    106  NH1       45.6510   44.3600   32.4040 N.pl3 202  ARG202      0.1354
    107  NH2       45.0620   46.4430   31.6460 N.pl3 202  ARG202      0.1354
    108  N         49.9370   42.6360   41.7640 N.3   204  GLY204     -0.1210
    109  CA        49.3990   41.3330   42.1000 C.3   204  GLY204      0.1956
    110  C         48.1420   41.4530   42.9470 C.2   204  GLY204      0.2612
    111  O         48.0060   42.3860   43.7330 O.2   204  GLY204     -0.2717
    112  N         47.2210   40.5110   42.7780 N.am  205  VAL205     -0.1965
    113  CA        45.9790   40.4970   43.5440 C.3   205  VAL205      0.1727
    114  C         46.0740   39.3100   44.4960 C.2   205  VAL205      0.2616
    115  O         46.4660   38.2060   44.1000 O.2   205  VAL205     -0.2715
    116  CB        44.7550   40.3500   42.6190 C.3   205  VAL205      0.0290
    117  CG1       43.4700   40.4040   43.4420 C.3   205  VAL205      0.0023
    118  CG2       44.7680   41.4630   41.5770 C.3   205  VAL205      0.0023
    119  N         45.7250   39.5510   45.7520 N.am  206  TYR206     -0.1974
    120  CA        45.8240   38.5370   46.7920 C.3   206  TYR206      0.1639
    121  C         44.5330   38.3380   47.5730 C.2   206  TYR206      0.2290
    122  O         43.7240   39.2550   47.6960 O.2   206  TYR206     -0.2864
    123  CB        46.9450   38.9290   47.7620 C.3   206  TYR206      0.0560
    124  CG        48.2860   39.1060   47.0790 C.ar  206  TYR206     -0.0198
    125  CD1       48.6010   40.2880   46.3980 C.ar  206  TYR206     -0.0009
    126  CD2       49.2100   38.0650   47.0510 C.ar  206  TYR206     -0.0009
    127  CE1       49.8100   40.4200   45.7030 C.ar  206  TYR206      0.0417
    128  CE2       50.4140   38.1860   46.3600 C.ar  206  TYR206      0.0417
    129  CZ        50.7060   39.3620   45.6890 C.ar  206  TYR206      0.1957
    130  OH        51.8880   39.4670   44.9920 O.3   206  TYR206     -0.2866
@<TRIPOS>BOND
     1   107   105    1
     2   106   105    1
     3   105   104    2
     4    88    87    1
     5    88    89    1
     6    87    79   am
     7   104   103    1
     8    84    86   ar
     9    84    82   ar
    10    81    82    1
    11    81    78    1
    12    86    85   ar
    13    82    83   ar
    14    85    83   ar
    15    79    80    2
    16    79    78    1
    17   102   103    1
    18   102   101    1
    19    78    77    1
    20    91    89   am
    21    91    92    1
    22    89    90    2
    23    94    93    2
    24    38    37    2
    25    37    36    1
    26    37    39   am
    27    36    35    1
    28   101    98    1
    29    93    92    1
    30    92    95    1
    31    77    75   am
    32    95    96    1
    33    76    75    2
    34    96    30    1
    35    35    32    1
    36    30    29    1
    37    75    74    1
    38    97    98    1
    39    98    99    1
    40   100    99    2
    41    32    31    1
    42    32    33    1
    43    71    69   ar
    44    71    72   ar
    45    31    27   am
    46    74    73    1
    47    29    26    1
    48    69    66   ar
    49    73    61   am
    50    72    70   ar
    51    33    34    2
    52    18    16   ar
    53    26    27    1
    54    26    25    1
    55    27    28    2
    56    66    64   ar
    57    66    68   ar
    58    63    64    1
    59    63    60    1
    60    22    21    2
    61    61    60    1
    62    61    62    2
    63    70    68   ar
    64    15    16    1
    65    15    12    1
    66    64    65   ar
    67    16    17   ar
    68    60    59    1
    69    68    67   ar
    70    25    21   am
    71    21    20    1
    72     8    10   ar
    73     8     6   ar
    74     4     3    2
    75    45    44    1
    76    11    12    1
    77    10     9   ar
    78    65    67   ar
    79     5     6    1
    80     5     2    1
    81    12    13    1
    82    56    55    2
    83    14    13    2
    84     6     7   ar
    85   118   116    1
    86    13    19   am
    87   108   109    1
    88    59    55   am
    89    19    20    1
    90   109   110    1
    91     3     2    1
    92    20    23    1
    93     2     1    1
    94     9     7   ar
    95    55    54    1
    96    44    41    1
    97   116   117    1
    98   116   113    1
    99   112   110   am
   100   112   113    1
   101   110   111    2
   102    24    23    1
   103    40    41    1
   104    41    42    1
   105   113   114    1
   106    58    57    1
   107    54    57    1
   108    54    53    1
   109   115   114    2
   110    51    50    1
   111   114   119   am
   112    53    48   am
   113    42    43    2
   114   130   129    1
   115    49    48    2
   116    48    47    1
   117    50    47    1
   118    50    52    1
   119   129   127   ar
   120   129   128   ar
   121   127   125   ar
   122   119   120    1
   123    47    46    1
   124   128   126   ar
   125   125   124   ar
   126   120   121    1
   127   120   123    1
   128   126   124   ar
   129   124   123    1
   130   121   122    2
