@<TRIPOS>MOLECULE
tmp/1h52A00.pdb
 89 87 0 0 0
SMALL
GASTEIGER

@<TRIPOS>ATOM
      1  N         19.8460    8.2980   12.0730 N.3     8  PHE8       -0.1241
      2  CA        18.4740    7.8360   11.8310 C.3     8  PHE8        0.1605
      3  C         17.5380    8.9540   12.2720 C.2     8  PHE8        0.2264
      4  O         16.5970    9.3300   11.5640 O.2     8  PHE8       -0.2867
      5  CB        18.1940    6.5570   12.6300 C.3     8  PHE8        0.0534
      6  CG        16.7070    6.2190   12.7650 C.ar    8  PHE8       -0.0203
      7  CD1       16.0550    5.4600   11.8030 C.ar    8  PHE8       -0.0042
      8  CD2       15.9820    6.6450   13.8790 C.ar    8  PHE8       -0.0042
      9  CE1       14.7040    5.1230   11.9450 C.ar    8  PHE8       -0.0003
     10  CE2       14.6510    6.3150   14.0270 C.ar    8  PHE8       -0.0003
     11  CZ        14.0050    5.5480   13.0520 C.ar    8  PHE8       -0.0000
     12  N         17.2910   11.9430    9.7460 N.3    11  GLN11      -0.1231
     13  CA        16.5030   11.6900    8.5400 C.3    11  GLN11       0.1698
     14  C         15.0700   11.2670    8.8010 C.2    11  GLN11       0.2592
     15  O         14.2180   11.4220    7.9240 O.2    11  GLN11      -0.2718
     16  CB        17.0950   10.5520    7.7220 C.3    11  GLN11       0.0381
     17  CG        18.5140   10.6250    7.2930 C.3    11  GLN11       0.0905
     18  CD        18.7560    9.5960    6.2050 C.2    11  GLN11       0.2608
     19  OE1       18.4140    9.8180    5.0410 O.2    11  GLN11      -0.2717
     20  NE2       19.3000    8.4540    6.5810 N.am   11  GLN11      -0.0878
     21  N         14.7930   10.7330    9.9920 N.am   12  HIS12      -0.1976
     22  CA        13.4610   10.2010   10.2530 C.3    12  HIS12       0.1656
     23  C         12.7050   10.5640   11.5110 C.2    12  HIS12       0.2291
     24  O         11.6810    9.9560   11.7710 O.2    12  HIS12      -0.2864
     25  CB        13.5360    8.6780   10.1990 C.3    12  HIS12       0.0771
     26  CG        14.1730    8.1590    8.9590 C.ar   12  HIS12       0.0820
     27  ND1       13.6160    8.3340    7.7110 N.ar   12  HIS12      -0.2267
     28  CD2       15.3330    7.4860    8.7640 C.ar   12  HIS12       0.1154
     29  CE1       14.4020    7.7920    6.7990 C.ar   12  HIS12       0.1986
     30  NE2       15.4540    7.2740    7.4110 N.ar   12  HIS12      -0.2212
     31  N         16.5160   13.6980   -1.9290 N.3    39  LYS39      -0.1245
     32  CA        16.2020   12.2950   -1.6940 C.3    39  LYS39       0.1561
     33  C         14.8340   12.1420   -2.3460 C.2    39  LYS39       0.2260
     34  O         13.9960   13.0290   -2.2240 O.2    39  LYS39      -0.2867
     35  CB        16.1420   12.0230   -0.1980 C.3    39  LYS39       0.0271
     36  CG        16.2040   10.5630    0.1980 C.3    39  LYS39       0.0035
     37  CD        16.2450   10.4400    1.7280 C.3    39  LYS39       0.0206
     38  CE        16.3900    8.9970    2.1520 C.3    39  LYS39       0.1093
     39  NZ        16.3730    8.8580    3.6480 N.3    39  LYS39      -0.1314
     40  N         12.2660    9.8970   -1.7530 N.3    41  ILE41      -0.1245
     41  CA        11.2100    9.6670   -0.7900 C.3    41  ILE41       0.1561
     42  C         11.8420    9.5230    0.5860 C.2    41  ILE41       0.2260
     43  O         12.8320    8.7900    0.7650 O.2    41  ILE41      -0.2867
     44  CB        10.4110    8.3750   -1.0890 C.3    41  ILE41       0.0252
     45  CG1        9.3490    8.1640   -0.0060 C.3    41  ILE41       0.0019
     46  CG2       11.3490    7.1720   -1.1060 C.3    41  ILE41       0.0019
     47  CD1        8.2970    7.1040   -0.3720 C.3    41  ILE41       0.0001
     48  N         18.4340    2.2510   13.5280 N.3   112  VAL112     -0.1231
     49  CA        19.4480    2.8400   12.6450 C.3   112  VAL112      0.1692
     50  C         19.0650    2.7850   11.1620 C.2   112  VAL112      0.2592
     51  O         19.8980    3.0540   10.2950 O.2   112  VAL112     -0.2718
     52  CB        20.7920    2.1320   12.7740 C.3   112  VAL112      0.0266
     53  CG1       21.3160    2.2590   14.2080 C.3   112  VAL112      0.0020
     54  CG2       20.6580    0.6660   12.3300 C.3   112  VAL112      0.0020
     55  N         17.8170    2.4320   10.8770 N.am  113  HIS113     -0.1962
     56  CA        17.3450    2.3300    9.4970 C.3   113  HIS113      0.1787
     57  C         15.8230    2.2930    9.4310 C.2   113  HIS113      0.2620
     58  O         15.1860    1.5700   10.1770 O.2   113  HIS113     -0.2715
     59  CB        17.8740    1.0460    8.8550 C.3   113  HIS113      0.0785
     60  CG        17.2980    0.7590    7.5070 C.ar  113  HIS113      0.0821
     61  ND1       17.5610    1.5390    6.4030 N.ar  113  HIS113     -0.2267
     62  CD2       16.4890   -0.2410    7.0790 C.ar  113  HIS113      0.1154
     63  CE1       16.9430    1.0300    5.3510 C.ar  113  HIS113      0.1986
     64  NE2       16.2870   -0.0510    5.7340 N.ar  113  HIS113     -0.2212
     65  N         15.2520    3.0430    8.4940 N.am  114  LEU114     -0.1963
     66  CA        13.8130    3.0740    8.3260 C.3   114  LEU114      0.1728
     67  C         13.5100    2.4340    6.9820 C.2   114  LEU114      0.2616
     68  O         14.0050    2.8850    5.9490 O.2   114  LEU114     -0.2715
     69  CB        13.3080    4.5180    8.3210 C.3   114  LEU114      0.0311
     70  CG        11.9650    4.9610    8.9440 C.3   114  LEU114      0.0022
     71  CD1       11.2160    5.8360    7.9490 C.3   114  LEU114      0.0001
     72  CD2       11.1310    3.8050    9.3640 C.3   114  LEU114      0.0001
     73  N         12.6900    1.3940    6.9930 N.am  115  ASP115     -0.1957
     74  CA        12.3100    0.7440    5.7420 C.3   115  ASP115      0.1840
     75  C         11.1740    1.5410    5.0840 C.2   115  ASP115      0.2621
     76  O         10.0060    1.4240    5.4760 O.2   115  ASP115     -0.2715
     77  CB        11.8490   -0.6780    6.0190 C.3   115  ASP115      0.1450
     78  CG        11.3090   -1.3630    4.7800 C.2   115  ASP115      0.3671
     79  OD1       10.9700   -2.5500    4.8850 O.co2 115  ASP115     -0.2456
     80  OD2       11.2230   -0.7220    3.7140 O.co2 115  ASP115     -0.2456
     81  N         11.5220    2.3320    4.0760 N.am  116  GLN116     -0.1977
     82  CA        10.5710    3.1790    3.3480 C.3   116  GLN116      0.1601
     83  C          9.5530    2.4500    2.4730 C.2   116  GLN116      0.2287
     84  O          8.5100    3.0260    2.1160 O.2   116  GLN116     -0.2864
     85  CB        11.3230    4.1590    2.4480 C.3   116  GLN116      0.0394
     86  CG        12.2200    5.1430    3.1680 C.3   116  GLN116      0.0908
     87  CD        11.4830    6.3860    3.5990 C.2   116  GLN116      0.2608
     88  OE1       12.0290    7.2320    4.3170 O.2   116  GLN116     -0.2717
     89  NE2       10.2320    6.5110    3.1560 N.am  116  GLN116     -0.0878
@<TRIPOS>BOND
     1    33    34    2
     2    33    32    1
     3    31    32    1
     4    40    41    1
     5    32    35    1
     6    46    44    1
     7    44    41    1
     8    44    45    1
     9    41    42    1
    10    47    45    1
    11    35    36    1
    12    36    37    1
    13    42    43    2
    14    37    38    1
    15    84    83    2
    16    38    39    1
    17    85    86    1
    18    85    82    1
    19    83    82    1
    20    89    87   am
    21    86    87    1
    22    82    81    1
    23    87    88    2
    24    80    78   ar
    25    81    75   am
    26    78    79   ar
    27    78    77    1
    28    19    18    2
    29    75    76    2
    30    75    74    1
    31    63    64   ar
    32    63    61   ar
    33    64    62   ar
    34    74    77    1
    35    74    73    1
    36    68    67    2
    37    18    20   am
    38    18    17    1
    39    61    60   ar
    40    29    30   ar
    41    29    27   ar
    42    67    73   am
    43    67    66    1
    44    62    60   ar
    45    17    16    1
    46    30    28   ar
    47    60    59    1
    48    27    26   ar
    49    16    13    1
    50    15    14    2
    51    71    70    1
    52    69    66    1
    53    69    70    1
    54    66    65    1
    55    65    57   am
    56    13    14    1
    57    13    12    1
    58    28    26   ar
    59    14    21   am
    60    59    56    1
    61    70    72    1
    62    26    25    1
    63    57    56    1
    64    57    58    2
    65    56    55    1
    66    21    22    1
    67    25    22    1
    68    22    23    1
    69    51    50    2
    70    55    50   am
    71    50    49    1
    72    23    24    2
    73     4     3    2
    74     7     9   ar
    75     7     6   ar
    76     2     1    1
    77     2     3    1
    78     2     5    1
    79     9    11   ar
    80    54    52    1
    81     5     6    1
    82    49    52    1
    83    49    48    1
    84     6     8   ar
    85    52    53    1
    86    11    10   ar
    87     8    10   ar
