@<TRIPOS>MOLECULE
tmp/1h5rD01.pdb
 91 84 0 0 0
SMALL
GASTEIGER

@<TRIPOS>ATOM
      1  N         16.1520   22.7730   45.8120 N.3     8  LEU8       -0.1245
      2  CA        14.8710   22.3550   46.3540 C.3     8  LEU8        0.1561
      3  C         15.1170   21.6210   47.6930 C.2     8  LEU8        0.2260
      4  O         15.6470   20.5020   47.7120 O.2     8  LEU8       -0.2867
      5  CB        14.1850   21.4570   45.3290 C.3     8  LEU8        0.0270
      6  CG        12.7600   20.9970   45.6680 C.3     8  LEU8        0.0019
      7  CD1       11.8470   22.1770   45.9700 C.3     8  LEU8        0.0001
      8  CD2       12.2010   20.1560   44.4820 C.3     8  LEU8        0.0001
      9  N         12.7680   21.0710   50.4870 N.3    10  GLY10      -0.1210
     10  CA        11.5650   20.8350   51.2820 C.3    10  GLY10       0.1956
     11  C         11.3000   19.3380   51.3590 C.2    10  GLY10       0.2612
     12  O         12.2250   18.5620   51.6460 O.2    10  GLY10      -0.2717
     13  N         10.0610   18.9170   51.1110 N.am   11  GLY11      -0.1956
     14  CA         9.7090   17.4960   51.2010 C.3    11  GLY11       0.1869
     15  C          8.8220   17.2330   52.4020 C.2    11  GLY11       0.2309
     16  O          8.7400   18.0640   53.2900 O.2    11  GLY11      -0.2863
     17  N         15.0430   17.9680   56.8880 N.3    25  LYS25      -0.1231
     18  CA        16.0520   17.0120   56.5120 C.3    25  LYS25       0.1693
     19  C         17.3120   17.7700   56.0640 C.2    25  LYS25       0.2591
     20  O         18.3930   17.3120   56.3190 O.2    25  LYS25      -0.2718
     21  CB        15.5420   16.1240   55.3770 C.3    25  LYS25       0.0285
     22  CG        16.6000   15.1390   54.8620 C.3    25  LYS25       0.0035
     23  CD        16.1100   14.3470   53.6370 C.3    25  LYS25       0.0206
     24  CE        17.2600   13.3970   53.2230 C.3    25  LYS25       0.1093
     25  NZ        16.9950   12.4510   52.0660 N.3    25  LYS25      -0.1314
     26  N         17.1470   18.8770   55.3240 N.am   26  GLN26      -0.1979
     27  CA        18.2810   19.5740   54.6790 C.3    26  GLN26       0.1601
     28  C         19.0790   20.4860   55.6280 C.2    26  GLN26       0.2287
     29  O         20.0780   21.0930   55.2490 O.2    26  GLN26      -0.2864
     30  CB        17.8490   20.2970   53.3790 C.3    26  GLN26       0.0394
     31  CG        17.3570   19.2810   52.3010 C.3    26  GLN26       0.0908
     32  CD        15.8800   18.9880   52.3350 C.2    26  GLN26       0.2608
     33  OE1       15.3930   18.1360   51.6140 O.2    26  GLN26      -0.2717
     34  NE2       15.2030   19.5930   53.2270 N.am   26  GLN26      -0.0878
     35  N          7.4490   26.3250   49.3590 N.3    82  GLN82      -0.1245
     36  CA         6.6510   25.3360   48.6420 C.3    82  GLN82       0.1566
     37  C          5.5560   24.8920   49.6120 C.2    82  GLN82       0.2260
     38  O          5.8550   24.2290   50.5830 O.2    82  GLN82      -0.2867
     39  CB         7.4990   24.1250   48.2290 C.3    82  GLN82       0.0367
     40  CG         6.6840   23.0990   47.4270 C.3    82  GLN82       0.0905
     41  CD         7.5150   21.9050   46.9610 C.2    82  GLN82       0.2608
     42  OE1        8.4050   21.4750   47.6600 O.2    82  GLN82      -0.2717
     43  NE2        7.1630   21.3230   45.8140 N.am   82  GLN82      -0.0878
     44  N          4.5540   19.4180   49.1970 N.3    85  PRO85      -0.2116
     45  CA         5.5900   18.7670   48.3820 C.3    85  PRO85       0.1372
     46  C          4.9350   18.0830   47.2080 C.2    85  PRO85       0.2244
     47  O          4.8180   16.8710   47.1730 O.2    85  PRO85      -0.2868
     48  CB         6.1850   17.7220   49.3150 C.3    85  PRO85       0.0268
     49  CG         5.4820   17.9310   50.6720 C.3    85  PRO85       0.0207
     50  CD         4.1920   18.6550   50.4010 C.3    85  PRO85       0.0892
     51  N          5.8980   17.9010   44.1320 N.3    87  GLY87      -0.1210
     52  CA         6.7090   17.4340   43.0340 C.3    87  GLY87       0.1956
     53  C          7.9490   18.2330   42.7680 C.2    87  GLY87       0.2611
     54  O          7.8920   19.4760   42.8030 O.2    87  GLY87      -0.2717
     55  N          9.0240   17.5470   42.3650 N.am   88  LEU88      -0.1979
     56  CA        10.2430   18.2590   42.0050 C.3    88  LEU88       0.1596
     57  C          9.9780   19.3220   40.8980 C.2    88  LEU88       0.2287
     58  O         10.5430   20.4250   40.9270 O.2    88  LEU88      -0.2864
     59  CB        11.2960   17.2820   41.5160 C.3    88  LEU88       0.0297
     60  CG        11.7250   16.1750   42.4730 C.3    88  LEU88       0.0022
     61  CD1       12.9700   15.5140   41.8890 C.3    88  LEU88       0.0001
     62  CD2       11.9450   16.6530   43.8960 C.3    88  LEU88       0.0001
     63  N         18.8270   19.0500   44.0430 N.3   108  LEU108     -0.1231
     64  CA        18.0440   18.6510   45.1750 C.3   108  LEU108      0.1693
     65  C         18.8350   18.9210   46.4130 C.2   108  LEU108      0.2593
     66  O         20.0420   18.6570   46.4660 O.2   108  LEU108     -0.2718
     67  CB        17.6690   17.1790   45.0520 C.3   108  LEU108      0.0284
     68  CG        16.9010   16.9470   43.7190 C.3   108  LEU108      0.0019
     69  CD1       16.3240   15.4930   43.7590 C.3   108  LEU108      0.0001
     70  CD2       15.7790   17.9520   43.4920 C.3   108  LEU108      0.0001
     71  N         18.1450   19.4070   47.4270 N.am  109  GLY109     -0.1942
     72  CA        18.8000   19.7750   48.6620 C.3   109  GLY109      0.2014
     73  C         19.4600   18.6530   49.4440 C.2   109  GLY109      0.2638
     74  O         20.1990   18.9410   50.4140 O.2   109  GLY109     -0.2714
     75  N         19.1670   17.4110   49.0830 N.am  110  ASP110     -0.1971
     76  CA        19.7530   16.2600   49.7740 C.3   110  ASP110      0.1709
     77  C         20.7430   15.5290   48.8900 C.2   110  ASP110      0.2293
     78  O         21.0750   14.3700   49.1330 O.2   110  ASP110     -0.2864
     79  CB        18.6880   15.2630   50.3160 C.3   110  ASP110      0.1436
     80  CG        17.8070   14.6530   49.2200 C.2   110  ASP110      0.3671
     81  OD1       18.0780   14.8860   48.0500 O.co2 110  ASP110     -0.2456
     82  OD2       16.9110   13.8030   49.4520 O.co2 110  ASP110     -0.2456
     83  N          2.5310   13.4530   41.6970 N.3   196  GLU196     -0.1245
     84  CA         3.6480   14.4090   41.7300 C.3   196  GLU196      0.1567
     85  C          3.9040   15.0080   40.3800 C.2   196  GLU196      0.2260
     86  O          3.7120   14.3390   39.3710 O.2   196  GLU196     -0.2867
     87  CB         4.9210   13.7140   42.2350 C.3   196  GLU196      0.0388
     88  CG         4.8320   13.3680   43.7170 C.3   196  GLU196      0.1160
     89  CD         6.1480   12.8790   44.3260 C.2   196  GLU196      0.3649
     90  OE1        7.2170   12.9760   43.6730 O.co2 196  GLU196     -0.2457
     91  OE2        6.1310   12.4340   45.4920 O.co2 196  GLU196     -0.2457
@<TRIPOS>BOND
     1    86    85    2
     2    85    84    1
     3    57    58    2
     4    57    56    1
     5    59    56    1
     6    59    60    1
     7    83    84    1
     8    84    87    1
     9    61    60    1
    10    56    55    1
    11    87    88    1
    12    55    53   am
    13    60    62    1
    14    53    54    2
    15    53    52    1
    16    52    51    1
    17    70    68    1
    18    90    89   ar
    19    88    89    1
    20    68    69    1
    21    68    67    1
    22    63    64    1
    23    89    91   ar
    24     8     6    1
    25    67    64    1
    26    64    65    1
    27     5     6    1
    28     5     2    1
    29     6     7    1
    30     1     2    1
    31    43    41   am
    32     2     3    1
    33    65    66    2
    34    65    71   am
    35    41    40    1
    36    41    42    2
    37    47    46    2
    38    46    45    1
    39    71    72    1
    40    40    39    1
    41     3     4    2
    42    81    80   ar
    43    39    36    1
    44    45    44    1
    45    45    48    1
    46    36    35    1
    47    36    37    1
    48    72    73    1
    49    77    78    2
    50    77    76    1
    51    75    73   am
    52    75    76    1
    53    44    50    1
    54    80    82   ar
    55    80    79    1
    56    48    49    1
    57    73    74    2
    58    37    38    2
    59    76    79    1
    60    50    49    1
    61     9    10    1
    62    13    14    1
    63    13    11   am
    64    14    15    1
    65    10    11    1
    66    11    12    2
    67    33    32    2
    68    25    24    1
    69    31    32    1
    70    31    30    1
    71    32    34   am
    72    15    16    2
    73    24    23    1
    74    30    27    1
    75    23    22    1
    76    27    26    1
    77    27    28    1
    78    22    21    1
    79    29    28    2
    80    26    19   am
    81    21    18    1
    82    19    20    2
    83    19    18    1
    84    18    17    1
