@<TRIPOS>MOLECULE
tmp/1h5rD02.pdb
 169 160 0 0 0
SMALL
GASTEIGER

@<TRIPOS>ATOM
      1  N          9.6600    9.9270   55.6590 N.3    15  ARG15      -0.1245
      2  CA        10.4430    8.6830   55.6460 C.3    15  ARG15       0.1563
      3  C         11.4260    8.6120   56.8120 C.2    15  ARG15       0.2260
      4  O         11.6690    7.5160   57.3700 O.2    15  ARG15      -0.2867
      5  CB        11.1800    8.5290   54.3090 C.3    15  ARG15       0.0307
      6  CG        12.4770    7.7670   54.3370 C.3    15  ARG15       0.0489
      7  CD        12.8540    7.1030   53.2720 C.3    15  ARG15       0.2205
      8  NE        13.0950    7.7670   51.9880 N.pl3  15  ARG15      -0.0865
      9  CZ        13.9480    7.3130   51.0640 C.cat  15  ARG15       0.5346
     10  NH1       14.6440    6.1950   51.2820 N.pl3  15  ARG15       0.1354
     11  NH2       14.1030    7.9700   49.9200 N.pl3  15  ARG15       0.1354
     12  N          9.0240   17.5470   42.3650 N.3    88  LEU88      -0.1245
     13  CA        10.2430   18.2590   42.0050 C.3    88  LEU88       0.1561
     14  C          9.9780   19.3220   40.8980 C.2    88  LEU88       0.2260
     15  O         10.5430   20.4250   40.9270 O.2    88  LEU88      -0.2867
     16  CB        11.2960   17.2820   41.5160 C.3    88  LEU88       0.0270
     17  CG        11.7250   16.1750   42.4730 C.3    88  LEU88       0.0019
     18  CD1       12.9700   15.5140   41.8890 C.3    88  LEU88       0.0001
     19  CD2       11.9450   16.6530   43.8960 C.3    88  LEU88       0.0001
     20  N         18.8270   19.0500   44.0430 N.3   108  LEU108     -0.1245
     21  CA        18.0440   18.6510   45.1750 C.3   108  LEU108      0.1561
     22  C         18.8350   18.9210   46.4130 C.2   108  LEU108      0.2260
     23  O         20.0420   18.6570   46.4660 O.2   108  LEU108     -0.2867
     24  CB        17.6690   17.1790   45.0520 C.3   108  LEU108      0.0270
     25  CG        16.9010   16.9470   43.7190 C.3   108  LEU108      0.0019
     26  CD1       16.3240   15.4930   43.7590 C.3   108  LEU108      0.0001
     27  CD2       15.7790   17.9520   43.4920 C.3   108  LEU108      0.0001
     28  N         19.1670   17.4110   49.0830 N.3   110  ASP110     -0.1225
     29  CA        19.7530   16.2600   49.7740 C.3   110  ASP110      0.1805
     30  C         20.7430   15.5290   48.8900 C.2   110  ASP110      0.2597
     31  O         21.0750   14.3700   49.1330 O.2   110  ASP110     -0.2718
     32  CB        18.6880   15.2630   50.3160 C.3   110  ASP110      0.1424
     33  CG        17.8070   14.6530   49.2200 C.2   110  ASP110      0.3668
     34  OD1       18.0780   14.8860   48.0500 O.co2 110  ASP110     -0.2456
     35  OD2       16.9110   13.8030   49.4520 O.co2 110  ASP110     -0.2456
     36  N         21.1750   16.1900   47.8360 N.am  111  ASN111     -0.1974
     37  CA        22.1180   15.5580   46.9010 C.3   111  ASN111      0.1688
     38  C         23.5500   15.9360   47.1830 C.2   111  ASN111      0.2292
     39  O         23.9060   17.1090   47.1970 O.2   111  ASN111     -0.2864
     40  CB        21.7250   15.8380   45.4550 C.3   111  ASN111      0.1181
     41  CG        20.8330   14.7100   44.8850 C.2   111  ASN111      0.2629
     42  OD1       21.1380   14.1740   43.8360 O.2   111  ASN111     -0.2716
     43  ND2       19.7780   14.3160   45.6210 N.am  111  ASN111     -0.0877
     44  N         14.6060    2.9900   42.5260 N.3   144  ARG144     -0.1231
     45  CA        14.2580    4.0960   43.3930 C.3   144  ARG144      0.1694
     46  C         14.2380    5.4320   42.6840 C.2   144  ARG144      0.2592
     47  O         13.8520    6.4220   43.2990 O.2   144  ARG144     -0.2718
     48  CB        15.2480    4.2300   44.5440 C.3   144  ARG144      0.0321
     49  CG        15.1100    3.1860   45.6500 C.3   144  ARG144      0.0489
     50  CD        15.5640    3.7710   47.0100 C.3   144  ARG144      0.2205
     51  NE        16.9930    3.6340   47.1320 N.pl3 144  ARG144     -0.0865
     52  CZ        17.8290    4.4570   47.7550 C.cat 144  ARG144      0.5346
     53  NH1       17.4480    5.6060   48.3220 N.pl3 144  ARG144      0.1354
     54  NH2       19.0930    4.0900   47.8160 N.pl3 144  ARG144      0.1354
     55  N         14.7320    5.4790   41.4480 N.am  145  TYR145     -0.1962
     56  CA        15.0960    6.7440   40.8260 C.3   145  TYR145      0.1771
     57  C         14.4460    6.8350   39.4580 C.2   145  TYR145      0.2620
     58  O         13.6930    5.9500   39.0660 O.2   145  TYR145     -0.2715
     59  CB        16.6320    6.7760   40.5970 C.3   145  TYR145      0.0574
     60  CG        17.3980    6.7320   41.9130 C.ar  145  TYR145     -0.0198
     61  CD1       18.0170    5.5470   42.3530 C.ar  145  TYR145     -0.0009
     62  CD2       17.3420    7.8080   42.8030 C.ar  145  TYR145     -0.0009
     63  CE1       18.6460    5.5130   43.6060 C.ar  145  TYR145      0.0417
     64  CE2       18.0290    7.7780   44.0380 C.ar  145  TYR145      0.0417
     65  CZ        18.6960    6.6200   44.4070 C.ar  145  TYR145      0.1957
     66  OH        19.3190    6.5140   45.6410 O.3   145  TYR145     -0.2866
     67  N         14.6440    7.9830   38.8240 N.am  146  GLY146     -0.1954
     68  CA        14.4400    8.1050   37.3970 C.3   146  GLY146      0.1869
     69  C         15.5190    7.2600   36.7530 C.2   146  GLY146      0.2309
     70  O         16.7050    7.3870   37.0850 O.2   146  GLY146     -0.2863
     71  N         10.0710    6.9960   35.6060 N.3   161  GLU161     -0.1231
     72  CA        10.2520    7.3430   37.0260 C.3   161  GLU161      0.1699
     73  C          9.9570    6.1130   37.8880 C.2   161  GLU161      0.2592
     74  O          8.8670    5.5580   37.7860 O.2   161  GLU161     -0.2718
     75  CB         9.3690    8.5220   37.4880 C.3   161  GLU161      0.0402
     76  CG         9.4790    8.8270   38.9940 C.3   161  GLU161      0.1161
     77  CD        10.8330    9.3910   39.4230 C.2   161  GLU161      0.3649
     78  OE1       11.6030    9.9030   38.5570 O.co2 161  GLU161     -0.2457
     79  OE2       11.0800    9.4420   40.6510 O.co2 161  GLU161     -0.2457
     80  N         10.9230    5.6830   38.7040 N.am  162  LYS162     -0.1980
     81  CA        10.7160    4.5810   39.6430 C.3   162  LYS162      0.1596
     82  C         10.0450    3.3800   39.0320 C.2   162  LYS162      0.2287
     83  O          9.0090    2.9410   39.4760 O.2   162  LYS162     -0.2864
     84  CB         9.9130    5.0340   40.8360 C.3   162  LYS162      0.0298
     85  CG        10.6420    6.0510   41.6320 C.3   162  LYS162      0.0038
     86  CD         9.9250    6.4950   42.9160 C.3   162  LYS162      0.0206
     87  CE        10.9390    7.3000   43.7640 C.3   162  LYS162      0.1093
     88  NZ        10.4030    7.9200   45.0240 N.3   162  LYS162     -0.1314
     89  N         19.0320    8.7660   37.1610 N.3   172  VAL172     -0.1245
     90  CA        19.2970   10.1640   36.8500 C.3   172  VAL172      0.1561
     91  C         19.5550   10.9190   38.1790 C.2   172  VAL172      0.2260
     92  O         18.7140   10.9070   39.0670 O.2   172  VAL172     -0.2867
     93  CB        18.1450   10.7960   36.0400 C.3   172  VAL172      0.0252
     94  CG1       18.4280   12.2560   35.7830 C.3   172  VAL172      0.0019
     95  CG2       17.9390   10.0460   34.7060 C.3   172  VAL172      0.0019
     96  N         20.2220   13.9790   41.0950 N.3   174  GLY174     -0.1225
     97  CA        19.4550   15.1650   41.4280 C.3   174  GLY174      0.1811
     98  C         20.1130   16.4970   41.0480 C.2   174  GLY174      0.2280
     99  O         19.8820   17.4830   41.7380 O.2   174  GLY174     -0.2866
    100  N         20.3930   19.1250   37.6610 N.3   176  TYR176     -0.1241
    101  CA        19.7770   19.2410   36.3440 C.3   176  TYR176      0.1605
    102  C         20.0690   20.6500   35.7970 C.2   176  TYR176      0.2264
    103  O         19.9650   21.6260   36.5390 O.2   176  TYR176     -0.2867
    104  CB        18.2600   19.1730   36.4990 C.3   176  TYR176      0.0534
    105  CG        17.7800   17.9840   37.2870 C.ar  176  TYR176     -0.0201
    106  CD1       17.4710   18.1100   38.6120 C.ar  176  TYR176     -0.0009
    107  CD2       17.4280   16.8000   36.6530 C.ar  176  TYR176     -0.0009
    108  CE1       17.0720   17.0360   39.3410 C.ar  176  TYR176      0.0417
    109  CE2       16.9330   15.7110   37.3810 C.ar  176  TYR176      0.0417
    110  CZ        16.7190   15.8630   38.7240 C.ar  176  TYR176      0.1957
    111  OH        16.3160   14.8400   39.5590 O.3   176  TYR176     -0.2866
    112  N          1.6290    9.0630   40.9430 N.3   194  ARG194     -0.1245
    113  CA         1.9710    9.1800   42.3500 C.3   194  ARG194      0.1563
    114  C          1.5020   10.5030   42.8470 C.2   194  ARG194      0.2260
    115  O          1.8850   10.9000   43.9590 O.2   194  ARG194     -0.2867
    116  CB         3.4680    9.1870   42.6810 C.3   194  ARG194      0.0307
    117  CG         4.3570    8.3070   41.9190 C.3   194  ARG194      0.0489
    118  CD         5.7350    8.3550   42.5640 C.3   194  ARG194      0.2205
    119  NE         6.4920    9.5760   42.2590 N.pl3 194  ARG194     -0.0865
    120  CZ         7.4540   10.1000   43.0210 C.cat 194  ARG194      0.5346
    121  NH1        7.6460    9.6540   44.2550 N.pl3 194  ARG194      0.1354
    122  NH2        8.2240   11.0750   42.5390 N.pl3 194  ARG194      0.1354
    123  N          2.5310   13.4530   41.6970 N.3   196  GLU196     -0.1245
    124  CA         3.6480   14.4090   41.7300 C.3   196  GLU196      0.1567
    125  C          3.9040   15.0080   40.3800 C.2   196  GLU196      0.2260
    126  O          3.7120   14.3390   39.3710 O.2   196  GLU196     -0.2867
    127  CB         4.9210   13.7140   42.2350 C.3   196  GLU196      0.0388
    128  CG         4.8320   13.3680   43.7170 C.3   196  GLU196      0.1160
    129  CD         6.1480   12.8790   44.3260 C.2   196  GLU196      0.3649
    130  OE1        7.2170   12.9760   43.6730 O.co2 196  GLU196     -0.2457
    131  OE2        6.1310   12.4340   45.4920 O.co2 196  GLU196     -0.2457
    132  N          6.4730   15.6360   38.0010 N.3   198  GLU198     -0.1231
    133  CA         7.7120   14.8720   37.9660 C.3   198  GLU198      0.1699
    134  C          8.7750   15.5450   37.1260 C.2   198  GLU198      0.2592
    135  O          8.5250   15.9640   35.9960 O.2   198  GLU198     -0.2718
    136  CB         7.4690   13.4910   37.3720 C.3   198  GLU198      0.0402
    137  CG         6.3160   12.7340   38.0080 C.3   198  GLU198      0.1161
    138  CD         6.7450   12.0840   39.3050 C.2   198  GLU198      0.3649
    139  OE1        5.9850   11.2480   39.8570 O.co2 198  GLU198     -0.2457
    140  OE2        7.8680   12.4090   39.7660 O.co2 198  GLU198     -0.2457
    141  N          9.9930   15.5160   37.6400 N.am  199  ILE199     -0.1966
    142  CA        11.0690   16.1230   36.8780 C.3   199  ILE199      0.1727
    143  C         11.3840   15.1740   35.7040 C.2   199  ILE199      0.2616
    144  O         11.7790   15.6040   34.6220 O.2   199  ILE199     -0.2715
    145  CB        12.2990   16.4070   37.7680 C.3   199  ILE199      0.0290
    146  CG1       13.0510   17.6230   37.1380 C.3   199  ILE199      0.0022
    147  CG2       13.0890   15.1130   38.0110 C.3   199  ILE199      0.0023
    148  CD1       14.2950   18.1360   37.8570 C.3   199  ILE199      0.0001
    149  N         11.1590   13.8600   35.9050 N.am  200  THR200     -0.1951
    150  CA        11.3010   12.8730   34.8410 C.3   200  THR200      0.1897
    151  C         10.4550   13.2450   33.6160 C.2   200  THR200      0.2313
    152  O         10.8290   12.9530   32.4670 O.2   200  THR200     -0.2863
    153  CB        10.7210   11.5830   35.3130 C.3   200  THR200      0.1794
    154  OG1       11.2640   11.2350   36.5940 O.3   200  THR200     -0.2208
    155  CG2       11.1420   10.4740   34.3540 C.3   200  THR200      0.0378
    156  N         28.1710    9.6690   44.5010 N.3   223  TRP223     -0.1241
    157  CA        26.9430   10.4340   44.6160 C.3   223  TRP223      0.1605
    158  C         26.3190    9.7360   45.8620 C.2   223  TRP223      0.2264
    159  O         25.9260    8.5680   45.8030 O.2   223  TRP223     -0.2867
    160  CB        26.1080   10.2540   43.3100 C.3   223  TRP223      0.0550
    161  CG        24.7020   10.8320   43.3890 C.ar  223  TRP223      0.0003
    162  CD1       24.3180   12.0170   43.9350 C.ar  223  TRP223      0.0946
    163  CD2       23.5010   10.1740   42.9740 C.ar  223  TRP223      0.0152
    164  NE1       22.9350   12.1370   43.8890 N.ar  223  TRP223     -0.2442
    165  CE2       22.4150   11.0160   43.3050 C.ar  223  TRP223      0.0810
    166  CE3       23.2380    8.9560   42.3390 C.ar  223  TRP223      0.0012
    167  CZ2       21.0640   10.6650   43.0450 C.ar  223  TRP223      0.0191
    168  CZ3       21.9160    8.6120   42.0740 C.ar  223  TRP223      0.0001
    169  CH2       20.8460    9.4940   42.3610 C.ar  223  TRP223      0.0015
@<TRIPOS>BOND
     1   152   151    2
     2   151   150    1
     3   155   153    1
     4   144   143    2
     5    95    93    1
     6   150   153    1
     7   150   149    1
     8   153   154    1
     9    71    72    1
    10   143   149   am
    11   143   142    1
    12    94    93    1
    13   102   101    1
    14   102   103    2
    15   135   134    2
    16    93    90    1
    17   101   104    1
    18   101   100    1
    19   104   105    1
    20   107   105   ar
    21   107   109   ar
    22    69    70    2
    23    69    68    1
    24    90    89    1
    25    90    91    1
    26   142   141    1
    27   142   145    1
    28    72    75    1
    29    72    73    1
    30   134   141   am
    31   134   133    1
    32   146   145    1
    33   146   148    1
    34   105   106   ar
    35   136   133    1
    36   136   137    1
    37   109   110   ar
    38    68    67    1
    39    75    76    1
    40   145   147    1
    41    74    73    2
    42    73    80   am
    43   133   132    1
    44   137   138    1
    45    91    92    2
    46    78    77   ar
    47   106   108   ar
    48    80    81    1
    49   110   108   ar
    50   110   111    1
    51    67    57   am
    52    76    77    1
    53    82    83    2
    54    82    81    1
    55    58    57    2
    56   138   140   ar
    57   138   139   ar
    58   126   125    2
    59    77    79   ar
    60    57    56    1
    61    81    84    1
    62   125   124    1
    63    59    56    1
    64    59    60    1
    65    56    55    1
    66    84    85    1
    67    14    15    2
    68    14    13    1
    69   112   113    1
    70    98    97    1
    71    98    99    2
    72    96    97    1
    73    55    46   am
    74    16    13    1
    75    16    17    1
    76    85    86    1
    77   123   124    1
    78   124   127    1
    79    18    17    1
    80    60    61   ar
    81    60    62   ar
    82   117   118    1
    83   117   116    1
    84    13    12    1
    85   168   166   ar
    86   168   169   ar
    87   127   128    1
    88   119   118    1
    89   119   120    2
    90   166   163   ar
    91   113   116    1
    92   113   114    1
    93    61    63   ar
    94   169   167   ar
    95    17    19    1
    96    44    45    1
    97   122   120    1
    98    46    47    2
    99    46    45    1
   100    62    64   ar
   101   114   115    2
   102    86    87    1
   103   163   165   ar
   104   163   161   ar
   105   120   121    1
   106   167   165   ar
   107   165   164   ar
   108   160   161    1
   109   160   157    1
   110   161   162   ar
   111    45    48    1
   112    27    25    1
   113    63    65   ar
   114   130   129   ar
   115   128   129    1
   116    25    26    1
   117    25    24    1
   118    87    88    1
   119    42    41    2
   120   164   162   ar
   121    64    65   ar
   122    20    21    1
   123   129   131   ar
   124    65    66    1
   125   156   157    1
   126    48    49    1
   127   157   158    1
   128    41    40    1
   129    41    43   am
   130    24    21    1
   131    21    22    1
   132    40    37    1
   133    49    50    1
   134   159   158    2
   135    22    23    2
   136    37    38    1
   137    37    36    1
   138    50    51    1
   139    51    52    2
   140    38    39    2
   141    52    54    1
   142    52    53    1
   143    36    30   am
   144    34    33   ar
   145    30    31    2
   146    30    29    1
   147    28    29    1
   148    33    35   ar
   149    33    32    1
   150    29    32    1
   151    11     9    1
   152     9    10    1
   153     9     8    2
   154     8     7    1
   155     7     6    1
   156     5     6    1
   157     5     2    1
   158     2     1    1
   159     2     3    1
   160     3     4    2
