@<TRIPOS>MOLECULE
tmp/1h5rD00.pdb
 133 132 0 0 0
SMALL
GASTEIGER

@<TRIPOS>ATOM
      1  N         30.3570   25.7310   42.5300 N.3    45  LEU45      -0.1245
      2  CA        31.4130   25.1820   41.6910 C.3    45  LEU45       0.1561
      3  C         31.0740   25.2610   40.2220 C.2    45  LEU45       0.2260
      4  O         31.9640   25.2350   39.3710 O.2    45  LEU45      -0.2867
      5  CB        31.7610   23.7430   42.0700 C.3    45  LEU45       0.0270
      6  CG        32.4800   23.6720   43.4360 C.3    45  LEU45       0.0019
      7  CD1       32.4510   22.2370   43.9760 C.3    45  LEU45       0.0001
      8  CD2       33.9090   24.1510   43.3340 C.3    45  LEU45       0.0001
      9  N         27.4050   15.3860   45.9300 N.3   113  PHE113     -0.1227
     10  CA        28.3530   14.8970   44.9520 C.3   113  PHE113      0.1736
     11  C         29.8010   15.1110   45.4130 C.2   113  PHE113      0.2595
     12  O         30.1230   16.1660   45.8970 O.2   113  PHE113     -0.2718
     13  CB        28.1590   15.6760   43.6580 C.3   113  PHE113      0.0547
     14  CG        26.7860   15.5150   43.0540 C.ar  113  PHE113     -0.0202
     15  CD1       25.7590   16.4320   43.3530 C.ar  113  PHE113     -0.0042
     16  CD2       26.4640   14.3780   42.3450 C.ar  113  PHE113     -0.0042
     17  CE1       24.4650   16.2870   42.7830 C.ar  113  PHE113     -0.0003
     18  CE2       25.2370   14.3040   41.6160 C.ar  113  PHE113     -0.0003
     19  CZ        24.2090   15.2260   41.9000 C.ar  113  PHE113     -0.0000
     20  N         30.6730   14.1250   45.1860 N.am  114  TYR114     -0.1962
     21  CA        32.1150   14.2780   45.4610 C.3   114  TYR114      0.1771
     22  C         32.9360   13.6410   44.3500 C.2   114  TYR114      0.2620
     23  O         32.5860   12.5670   43.8940 O.2   114  TYR114     -0.2715
     24  CB        32.4620   13.5390   46.7520 C.3   114  TYR114      0.0574
     25  CG        33.9760   13.2890   46.9450 C.ar  114  TYR114     -0.0198
     26  CD1       34.8170   14.3280   47.3080 C.ar  114  TYR114     -0.0009
     27  CD2       34.5290   12.0380   46.7350 C.ar  114  TYR114     -0.0009
     28  CE1       36.2090   14.1380   47.4920 C.ar  114  TYR114      0.0417
     29  CE2       35.9290   11.8210   46.8560 C.ar  114  TYR114      0.0417
     30  CZ        36.7430   12.8930   47.3020 C.ar  114  TYR114      0.1957
     31  OH        38.1040   12.7610   47.3530 O.3   114  TYR114     -0.2866
     32  N         33.9530   14.3330   43.8380 N.am  115  GLY115     -0.1940
     33  CA        34.9710   13.6430   43.0390 C.3   115  GLY115      0.2014
     34  C         35.8110   14.5620   42.1710 C.2   115  GLY115      0.2639
     35  O         35.6630   15.7870   42.1860 O.2   115  GLY115     -0.2714
     36  N         36.7610   13.9760   41.4700 N.am  116  HIS116     -0.1959
     37  CA        37.7600   14.7700   40.7780 C.3   116  HIS116      0.1787
     38  C         37.1850   15.4100   39.5110 C.2   116  HIS116      0.2620
     39  O         36.5200   14.7480   38.7500 O.2   116  HIS116     -0.2715
     40  CB        38.8850   13.8260   40.3460 C.3   116  HIS116      0.0785
     41  CG        39.8990   14.4630   39.4510 C.ar  116  HIS116      0.0821
     42  ND1       40.7590   15.4510   39.9020 N.ar  116  HIS116     -0.2267
     43  CD2       40.3310   14.1300   38.2110 C.ar  116  HIS116      0.1154
     44  CE1       41.5020   15.8620   38.8820 C.ar  116  HIS116      0.1986
     45  NE2       41.2810   15.0600   37.8530 N.ar  116  HIS116     -0.2212
     46  N         37.4790   16.6940   39.3260 N.am  117  ASP117     -0.1957
     47  CA        37.1450   17.3690   38.0930 C.3   117  ASP117      0.1840
     48  C         35.6470   17.5980   37.9360 C.2   117  ASP117      0.2622
     49  O         35.1300   17.6440   36.8260 O.2   117  ASP117     -0.2715
     50  CB        37.8230   16.6590   36.8980 C.3   117  ASP117      0.1450
     51  CG        39.1270   17.3700   36.5020 C.2   117  ASP117      0.3671
     52  OD1       39.4500   18.4090   37.1190 O.co2 117  ASP117     -0.2456
     53  OD2       39.9140   16.9300   35.6400 O.co2 117  ASP117     -0.2456
     54  N         34.9590   17.7440   39.0720 N.am  118  LEU118     -0.1964
     55  CA        33.4880   17.9120   39.0150 C.3   118  LEU118      0.1713
     56  C         33.1710   19.1830   38.2230 C.2   118  LEU118      0.2458
     57  O         32.1860   19.2240   37.4940 O.2   118  LEU118     -0.2730
     58  CB        32.8700   18.0550   40.4220 C.3   118  LEU118      0.0310
     59  CG        31.5510   17.3610   40.7890 C.3   118  LEU118      0.0022
     60  CD1       30.7600   18.1100   41.9170 C.3   118  LEU118      0.0001
     61  CD2       30.6480   16.8850   39.6310 C.3   118  LEU118      0.0001
     62  N         33.8730   20.2860   38.4750 N.am  119  PRO119     -0.2727
     63  CA        33.5420   21.5210   37.7440 C.3   119  PRO119      0.1402
     64  C         33.6450   21.3070   36.2360 C.2   119  PRO119      0.2269
     65  O         32.8240   21.8560   35.4990 O.2   119  PRO119     -0.2865
     66  CB        34.5700   22.5370   38.2750 C.3   119  PRO119      0.0296
     67  CG        34.8040   22.0630   39.6430 C.3   119  PRO119      0.0237
     68  CD        34.7900   20.5600   39.5890 C.3   119  PRO119      0.0939
     69  N         38.4720   20.3550   53.5120 N.3   249  LYS249     -0.1231
     70  CA        37.0360   20.1420   53.6570 C.3   249  LYS249      0.1693
     71  C         36.4050   19.8670   52.2930 C.2   249  LYS249      0.2592
     72  O         36.9250   20.2880   51.2550 O.2   249  LYS249     -0.2718
     73  CB        36.4000   21.3920   54.2680 C.3   249  LYS249      0.0285
     74  CG        36.8780   21.7170   55.6970 C.3   249  LYS249      0.0035
     75  CD        36.0390   21.0520   56.7570 C.3   249  LYS249      0.0206
     76  CE        36.1130   21.7440   58.1420 C.3   249  LYS249      0.1093
     77  NZ        36.1720   20.7140   59.2140 N.3   249  LYS249     -0.1314
     78  N         35.3400   19.0570   52.3080 N.am  250  VAL250     -0.1966
     79  CA        34.4900   18.8560   51.1550 C.3   250  VAL250      0.1727
     80  C         33.2950   19.8070   51.1880 C.2   250  VAL250      0.2617
     81  O         32.6680   19.9290   52.2200 O.2   250  VAL250     -0.2715
     82  CB        33.9490   17.3890   51.1530 C.3   250  VAL250      0.0290
     83  CG1       32.9560   17.1380   49.9900 C.3   250  VAL250      0.0023
     84  CG2       35.1290   16.4180   51.1030 C.3   250  VAL250      0.0023
     85  N         33.0590   20.5830   50.1190 N.am  251  SER251     -0.1936
     86  CA        31.8740   21.4480   50.0730 C.3   251  SER251      0.2055
     87  C         31.7450   22.4210   51.1920 C.2   251  SER251      0.2643
     88  O         30.6760   22.5610   51.8050 O.2   251  SER251     -0.2714
     89  CB        30.5470   20.6150   49.9170 C.3   251  SER251      0.2130
     90  OG        30.7330   19.7220   48.8410 O.3   251  SER251     -0.2179
     91  N         32.8250   23.1590   51.4430 N.am  252  CYS252     -0.1967
     92  CA        32.7960   24.2330   52.4220 C.3   252  CYS252      0.1712
     93  C         32.5250   25.5510   51.6300 C.2   252  CYS252      0.2296
     94  O         33.3950   26.0170   50.8820 O.2   252  CYS252     -0.2864
     95  CB        34.1740   24.2840   53.0760 C.3   252  CYS252      0.0983
     96  SG        34.4720   25.7610   54.0400 S.3   252  CYS252     -0.0798
     97  N         35.1130   28.4430   51.7300 N.3   255  GLU255     -0.1231
     98  CA        36.3350   28.1560   51.0080 C.3   255  GLU255      0.1699
     99  C         36.1610   28.3430   49.5380 C.2   255  GLU255      0.2592
    100  O         37.0060   28.9410   48.8520 O.2   255  GLU255     -0.2718
    101  CB        36.7780   26.6980   51.2610 C.3   255  GLU255      0.0402
    102  CG        38.0530   26.4000   50.4690 C.3   255  GLU255      0.1161
    103  CD        38.5800   24.9970   50.6820 C.2   255  GLU255      0.3649
    104  OE1       37.8770   24.1750   51.2760 O.co2 255  GLU255     -0.2457
    105  OE2       39.6400   24.6910   50.1360 O.co2 255  GLU255     -0.2457
    106  N         35.0960   27.7740   49.0020 N.am  256  ILE256     -0.1980
    107  CA        34.8630   27.9120   47.5830 C.3   256  ILE256      0.1595
    108  C         34.6650   29.3870   47.1880 C.2   256  ILE256      0.2287
    109  O         35.2070   29.8490   46.1430 O.2   256  ILE256     -0.2864
    110  CB        33.6600   27.0450   47.1970 C.3   256  ILE256      0.0276
    111  CG1       34.0570   25.5740   47.2970 C.3   256  ILE256      0.0022
    112  CG2       33.1600   27.3300   45.7800 C.3   256  ILE256      0.0022
    113  CD1       32.7820   24.7100   47.2880 C.3   256  ILE256      0.0001
    114  N         38.1910   30.8950   47.1730 N.3   259  ARG259     -0.1231
    115  CA        39.0340   30.3630   46.1170 C.3   259  ARG259      0.1694
    116  C         38.6050   30.8790   44.7320 C.2   259  ARG259      0.2591
    117  O         39.4420   31.1370   43.8540 O.2   259  ARG259     -0.2718
    118  CB        39.0790   28.8220   46.1770 C.3   259  ARG259      0.0321
    119  CG        40.0580   28.2550   47.1730 C.3   259  ARG259      0.0489
    120  CD        40.2210   26.7040   47.0530 C.3   259  ARG259      0.2205
    121  NE        40.7440   26.0840   48.2740 N.pl3 259  ARG259     -0.0865
    122  CZ        41.7090   26.6000   49.0330 C.cat 259  ARG259      0.5346
    123  NH1       42.3220   27.7280   48.6740 N.pl3 259  ARG259      0.1354
    124  NH2       42.0530   25.9990   50.1680 N.pl3 259  ARG259      0.1354
    125  N         37.3120   31.1350   44.5790 N.am  260  LYS260     -0.1980
    126  CA        36.7870   31.6210   43.3270 C.3   260  LYS260      0.1596
    127  C         36.7800   33.1530   43.2890 C.2   260  LYS260      0.2287
    128  O         36.2960   33.7410   42.3450 O.2   260  LYS260     -0.2864
    129  CB        35.3800   31.0180   43.0560 C.3   260  LYS260      0.0298
    130  CG        35.4490   29.5160   42.7990 C.3   260  LYS260      0.0038
    131  CD        34.0950   28.8830   42.3970 C.3   260  LYS260      0.0206
    132  CE        33.6380   29.3030   40.9910 C.3   260  LYS260      0.1093
    133  NZ        34.5130   28.7920   39.8830 N.3   260  LYS260     -0.1314
@<TRIPOS>BOND
     1    65    64    2
     2    53    51   ar
     3    64    63    1
     4    51    50    1
     5    51    52   ar
     6    49    48    2
     7    50    47    1
     8    57    56    2
     9    63    66    1
    10    63    62    1
    11    45    43   ar
    12    45    44   ar
    13    48    47    1
    14    48    54   am
    15    47    46    1
    16    43    41   ar
    17    56    62   am
    18    56    55    1
    19    66    67    1
    20    62    68    1
    21    39    38    2
    22    44    42   ar
    23    55    54    1
    24    55    58    1
    25    46    38   am
    26     4     3    2
    27    41    42   ar
    28    41    40    1
    29    38    37    1
    30    68    67    1
    31    61    59    1
    32   133   132    1
    33     3     2    1
    34    40    37    1
    35    58    59    1
    36    37    36    1
    37    59    60    1
    38   132   131    1
    39    36    34   am
    40    18    19   ar
    41    18    16   ar
    42     2     5    1
    43     2     1    1
    44    19    17   ar
    45     5     6    1
    46    34    35    2
    47    34    33    1
    48    16    14   ar
    49   128   127    2
    50   131   130    1
    51    17    15   ar
    52   130   129    1
    53    33    32    1
    54    14    15   ar
    55    14    13    1
    56   129   126    1
    57   127   126    1
    58   126   125    1
    59     8     6    1
    60     6     7    1
    61    13    10    1
    62    32    22   am
    63   117   116    2
    64    23    22    2
    65    22    21    1
    66   125   116   am
    67   116   115    1
    68    10    11    1
    69    10     9    1
    70    20    11   am
    71    20    21    1
    72    11    12    2
    73    21    24    1
    74   112   110    1
    75   115   118    1
    76   115   114    1
    77   109   108    2
    78   118   119    1
    79    27    29   ar
    80    27    25   ar
    81    24    25    1
    82    29    30   ar
    83    25    26   ar
    84   120   119    1
    85   120   121    1
    86   108   107    1
    87   110   111    1
    88   110   107    1
    89   113   111    1
    90    30    31    1
    91    30    28   ar
    92    26    28   ar
    93   107   106    1
    94   121   122    2
    95   123   122    1
    96    90    89    1
    97   100    99    2
    98   106    99   am
    99   122   124    1
   100    99    98    1
   101    89    86    1
   102    83    82    1
   103    86    85    1
   104    86    87    1
   105    85    80   am
   106   105   103   ar
   107   102   103    1
   108   102   101    1
   109   103   104   ar
   110    94    93    2
   111    98   101    1
   112    98    97    1
   113    84    82    1
   114    82    79    1
   115    79    80    1
   116    79    78    1
   117    80    81    2
   118    87    91   am
   119    87    88    2
   120    72    71    2
   121    91    92    1
   122    93    92    1
   123    71    78   am
   124    71    70    1
   125    92    95    1
   126    95    96    1
   127    69    70    1
   128    70    73    1
   129    73    74    1
   130    74    75    1
   131    75    76    1
   132    76    77    1
