@<TRIPOS>MOLECULE
tmp/1h5sB00.pdb
 133 132 0 0 0
SMALL
GASTEIGER

@<TRIPOS>ATOM
      1  N         36.2120  -15.8640   81.4680 N.3    46  LEU46      -0.1245
      2  CA        35.4150  -15.1390   82.4210 C.3    46  LEU46       0.1561
      3  C         34.5060  -16.1100   83.1890 C.2    46  LEU46       0.2260
      4  O         33.9270  -15.7460   84.2100 O.2    46  LEU46      -0.2867
      5  CB        34.6090  -14.0720   81.7000 C.3    46  LEU46       0.0270
      6  CG        35.4010  -12.8380   81.2570 C.3    46  LEU46       0.0019
      7  CD1       34.5530  -11.9880   80.3260 C.3    46  LEU46       0.0001
      8  CD2       35.7590  -12.0750   82.4890 C.3    46  LEU46       0.0001
      9  N         30.4300  -11.8760   72.7530 N.3   114  PHE114     -0.1227
     10  CA        29.4980  -11.4570   73.7780 C.3   114  PHE114      0.1736
     11  C         30.1010  -10.2420   74.5100 C.2   114  PHE114      0.2595
     12  O         31.3090  -10.1990   74.7470 O.2   114  PHE114     -0.2718
     13  CB        29.2320  -12.6070   74.7750 C.3   114  PHE114      0.0547
     14  CG        28.6140  -13.8690   74.1530 C.ar  114  PHE114     -0.0202
     15  CD1       29.4290  -14.9240   73.7020 C.ar  114  PHE114     -0.0042
     16  CD2       27.2450  -14.0410   74.1110 C.ar  114  PHE114     -0.0042
     17  CE1       28.8790  -16.1030   73.1150 C.ar  114  PHE114     -0.0003
     18  CE2       26.6580  -15.2400   73.6190 C.ar  114  PHE114     -0.0003
     19  CZ        27.4980  -16.2810   73.0870 C.ar  114  PHE114     -0.0000
     20  N         29.2790   -9.2260   74.7640 N.am  115  TYR115     -0.1962
     21  CA        29.6750   -8.1290   75.6210 C.3   115  TYR115      0.1771
     22  C         28.5250   -7.4820   76.4070 C.2   115  TYR115      0.2620
     23  O         27.4230   -7.3000   75.8770 O.2   115  TYR115     -0.2715
     24  CB        30.3380   -7.0250   74.8050 C.3   115  TYR115      0.0574
     25  CG        30.3300   -5.6650   75.4940 C.ar  115  TYR115     -0.0198
     26  CD1       31.3560   -5.3090   76.3560 C.ar  115  TYR115     -0.0009
     27  CD2       29.2310   -4.8350   75.4060 C.ar  115  TYR115     -0.0009
     28  CE1       31.3350   -4.1140   77.0310 C.ar  115  TYR115      0.0417
     29  CE2       29.2030   -3.6160   76.0660 C.ar  115  TYR115      0.0417
     30  CZ        30.2420   -3.2820   76.9050 C.ar  115  TYR115      0.1957
     31  OH        30.2240   -2.0330   77.5240 O.3   115  TYR115     -0.2866
     32  N         28.8020   -7.1260   77.6620 N.am  116  GLY116     -0.1940
     33  CA        27.8320   -6.4710   78.5100 C.3   116  GLY116      0.2014
     34  C         28.0160   -6.6360   80.0240 C.2   116  GLY116      0.2639
     35  O         28.7790   -7.4750   80.4860 O.2   116  GLY116     -0.2714
     36  N         27.3820   -5.7560   80.7920 N.am  117  HIS117     -0.1959
     37  CA        27.4610   -5.7880   82.2610 C.3   117  HIS117      0.1787
     38  C         27.0680   -7.1120   82.9160 C.2   117  HIS117      0.2620
     39  O         25.9950   -7.6250   82.6480 O.2   117  HIS117     -0.2715
     40  CB        26.5440   -4.7270   82.8240 C.3   117  HIS117      0.0785
     41  CG        26.6170   -4.5930   84.3130 C.ar  117  HIS117      0.0821
     42  ND1       27.7420   -4.1270   84.9580 N.ar  117  HIS117     -0.2267
     43  CD2       25.6780   -4.7700   85.2730 C.ar  117  HIS117      0.1154
     44  CE1       27.5070   -4.0720   86.2570 C.ar  117  HIS117      0.1986
     45  NE2       26.2560   -4.4430   86.4750 N.ar  117  HIS117     -0.2212
     46  N         27.9000   -7.6040   83.8380 N.am  118  ASP118     -0.1957
     47  CA        27.6060   -8.8030   84.6410 C.3   118  ASP118      0.1840
     48  C         27.5170  -10.0760   83.8010 C.2   118  ASP118      0.2622
     49  O         26.8670  -11.0720   84.1720 O.2   118  ASP118     -0.2715
     50  CB        26.3140   -8.6220   85.4620 C.3   118  ASP118      0.1450
     51  CG        26.5820   -8.2190   86.9080 C.2   118  ASP118      0.3671
     52  OD1       27.6880   -8.5030   87.4420 O.co2 118  ASP118     -0.2456
     53  OD2       25.7400   -7.5990   87.5880 O.co2 118  ASP118     -0.2456
     54  N         28.2020  -10.0720   82.6740 N.am  119  LEU119     -0.1964
     55  CA        28.2560  -11.2880   81.8850 C.3   119  LEU119      0.1713
     56  C         28.5620  -12.5280   82.7620 C.2   119  LEU119      0.2458
     57  O         27.9680  -13.5480   82.5740 O.2   119  LEU119     -0.2730
     58  CB        29.2390  -11.1640   80.7070 C.3   119  LEU119      0.0310
     59  CG        29.1520  -12.3240   79.7010 C.3   119  LEU119      0.0022
     60  CD1       27.7090  -12.4670   79.1620 C.3   119  LEU119      0.0001
     61  CD2       30.1890  -12.2280   78.5310 C.3   119  LEU119      0.0001
     62  N         29.5880  -12.4810   83.5780 N.am  120  PRO120     -0.2727
     63  CA        29.9790  -13.6700   84.3620 C.3   120  PRO120      0.1402
     64  C         28.8670  -14.1110   85.3010 C.2   120  PRO120      0.2269
     65  O         28.6520  -15.3050   85.4180 O.2   120  PRO120     -0.2865
     66  CB        31.2170  -13.2170   85.1660 C.3   120  PRO120      0.0296
     67  CG        31.7620  -12.0060   84.3390 C.3   120  PRO120      0.0237
     68  CD        30.5620  -11.3790   83.6570 C.3   120  PRO120      0.0939
     69  N         40.1990   -2.1530   77.4600 N.3   250  LYS250     -0.1231
     70  CA        40.1380   -3.0410   76.3170 C.3   250  LYS250      0.1693
     71  C         39.0200   -4.0300   76.5550 C.2   250  LYS250      0.2592
     72  O         38.7600   -4.4160   77.7010 O.2   250  LYS250     -0.2718
     73  CB        41.4550   -3.8010   76.1210 C.3   250  LYS250      0.0285
     74  CG        42.5410   -2.9830   75.4200 C.3   250  LYS250      0.0035
     75  CD        43.5280   -3.9450   74.7110 C.3   250  LYS250      0.0206
     76  CE        44.7010   -3.2020   74.0180 C.3   250  LYS250      0.1093
     77  NZ        44.1690   -2.2070   72.9990 N.3   250  LYS250     -0.1314
     78  N         38.2870   -4.3360   75.4900 N.am  251  VAL251     -0.1966
     79  CA        37.3270   -5.4300   75.5210 C.3   251  VAL251      0.1727
     80  C         37.9920   -6.7720   75.2350 C.2   251  VAL251      0.2617
     81  O         38.7020   -6.9860   74.2460 O.2   251  VAL251     -0.2715
     82  CB        36.1240   -5.2230   74.5850 C.3   251  VAL251      0.0290
     83  CG1       35.1530   -6.4070   74.6830 C.3   251  VAL251      0.0023
     84  CG2       35.3850   -3.9800   74.9470 C.3   251  VAL251      0.0023
     85  N         37.7870   -7.6770   76.1730 N.am  252  SER252     -0.1936
     86  CA        38.2420   -9.0540   76.0050 C.3   252  SER252      0.2055
     87  C         39.7400   -9.1360   75.7610 C.2   252  SER252      0.2643
     88  O         40.1730   -9.7110   74.7760 O.2   252  SER252     -0.2714
     89  CB        37.5190   -9.7130   74.8330 C.3   252  SER252      0.2130
     90  OG        36.1320   -9.9520   75.1170 O.3   252  SER252     -0.2179
     91  N         40.5310   -8.6830   76.7200 N.am  253  CYS253     -0.1967
     92  CA        41.9770   -8.7970   76.6100 C.3   253  CYS253      0.1712
     93  C         42.3770   -9.9690   77.4820 C.2   253  CYS253      0.2296
     94  O         42.2920   -9.8750   78.7030 O.2   253  CYS253     -0.2864
     95  CB        42.6600   -7.5310   77.1080 C.3   253  CYS253      0.0983
     96  SG        44.4660   -7.5730   77.0340 S.3   253  CYS253     -0.0798
     97  N         44.6140   -9.2980   80.4410 N.3   256  GLU256     -0.1231
     98  CA        43.9790   -8.5520   81.5040 C.3   256  GLU256      0.1699
     99  C         43.0580   -9.4570   82.3430 C.2   256  GLU256      0.2592
    100  O         43.0320   -9.3830   83.5430 O.2   256  GLU256     -0.2718
    101  CB        43.1810   -7.3560   80.9310 C.3   256  GLU256      0.0402
    102  CG        42.5190   -6.4890   82.0360 C.3   256  GLU256      0.1161
    103  CD        41.7600   -5.2840   81.4970 C.2   256  GLU256      0.3649
    104  OE1       41.5760   -5.1930   80.2920 O.co2 256  GLU256     -0.2457
    105  OE2       41.1350   -4.5720   82.2640 O.co2 256  GLU256     -0.2457
    106  N         42.2120  -10.2270   81.6860 N.am  257  ILE257     -0.1980
    107  CA        41.3010  -11.0620   82.4100 C.3   257  ILE257      0.1595
    108  C         42.1000  -12.0510   83.2680 C.2   257  ILE257      0.2287
    109  O         41.8250  -12.1970   84.4540 O.2   257  ILE257     -0.2864
    110  CB        40.3420  -11.7570   81.4190 C.3   257  ILE257      0.0276
    111  CG1       39.3030  -10.7400   80.9290 C.3   257  ILE257      0.0022
    112  CG2       39.6510  -12.9680   82.0720 C.3   257  ILE257      0.0022
    113  CD1       38.6040  -11.1890   79.5890 C.3   257  ILE257      0.0001
    114  N         43.3590  -10.0830   86.2240 N.3   260  ARG260     -0.1231
    115  CA        42.3250   -9.6620   87.1610 C.3   260  ARG260      0.1694
    116  C         41.7500  -10.8320   87.9410 C.2   260  ARG260      0.2591
    117  O         41.4220  -10.6950   89.1000 O.2   260  ARG260     -0.2718
    118  CB        41.1970   -8.9640   86.4380 C.3   260  ARG260      0.0321
    119  CG        41.5200   -7.4900   86.1460 C.3   260  ARG260      0.0489
    120  CD        40.4050   -6.7060   85.4640 C.3   260  ARG260      0.2205
    121  NE        40.9150   -5.3960   85.0880 N.pl3 260  ARG260     -0.0865
    122  CZ        40.9400   -4.3560   85.9070 C.cat 260  ARG260      0.5346
    123  NH1       40.3790   -4.4480   87.1090 N.pl3 260  ARG260      0.1354
    124  NH2       41.5280   -3.2320   85.5180 N.pl3 260  ARG260      0.1354
    125  N         41.7150  -11.9970   87.3170 N.am  261  LYS261     -0.1980
    126  CA        41.1040  -13.1330   87.9460 C.3   261  LYS261      0.1596
    127  C         42.1200  -13.9370   88.7600 C.2   261  LYS261      0.2287
    128  O         41.7890  -14.9780   89.2560 O.2   261  LYS261     -0.2864
    129  CB        40.4750  -14.0180   86.8650 C.3   261  LYS261      0.0298
    130  CG        39.1970  -13.4140   86.3250 C.3   261  LYS261      0.0038
    131  CD        38.3940  -14.4670   85.5370 C.3   261  LYS261      0.0206
    132  CE        37.8410  -15.5910   86.4260 C.3   261  LYS261      0.1093
    133  NZ        36.6590  -15.2180   87.3050 N.3   261  LYS261     -0.1314
@<TRIPOS>BOND
     1     9    10    1
     2    77    76    1
     3    19    17   ar
     4    19    18   ar
     5    17    15   ar
     6    18    16   ar
     7    15    14   ar
     8    10    11    1
     9    10    13    1
    10    76    75    1
    11    16    14   ar
    12    14    13    1
    13    81    80    2
    14    11    12    2
    15    11    20   am
    16    82    83    1
    17    82    84    1
    18    82    79    1
    19    75    74    1
    20    20    21    1
    21    88    87    2
    22    24    25    1
    23    24    21    1
    24    89    90    1
    25    89    86    1
    26    80    79    1
    27    80    85   am
    28    27    25   ar
    29    27    29   ar
    30    74    73    1
    31    78    79    1
    32    78    71   am
    33    25    26   ar
    34    21    22    1
    35    87    86    1
    36    87    91   am
    37    23    22    2
    38    86    85    1
    39    29    30   ar
    40    73    70    1
    41    70    71    1
    42    70    69    1
    43    26    28   ar
    44    22    32   am
    45    71    72    2
    46    92    91    1
    47    92    95    1
    48    92    93    1
    49    30    28   ar
    50    30    31    1
    51    96    95    1
    52    93    94    2
    53    32    33    1
    54    33    34    1
    55    61    59    1
    56    60    59    1
    57   113   111    1
    58    59    58    1
    59    34    35    2
    60    34    36   am
    61   104   103   ar
    62     7     6    1
    63    97    98    1
    64    58    55    1
    65    36    37    1
    66   111   110    1
    67   101    98    1
    68   101   102    1
    69     6     5    1
    70     6     8    1
    71   110   112    1
    72   110   107    1
    73     1     2    1
    74   103   102    1
    75   103   105   ar
    76    98    99    1
    77   106    99   am
    78   106   107    1
    79     5     2    1
    80    55    54    1
    81    55    56    1
    82    37    40    1
    83    37    38    1
    84    99   100    2
    85   107   108    1
    86     2     3    1
    87    57    56    2
    88    39    38    2
    89    54    48   am
    90    56    62   am
    91    40    41    1
    92    38    46   am
    93     3     4    2
    94   108   109    2
    95    62    68    1
    96    62    63    1
    97    68    67    1
    98    48    49    2
    99    48    47    1
   100    46    47    1
   101    41    42   ar
   102    41    43   ar
   103    67    66    1
   104    63    66    1
   105    63    64    1
   106    47    50    1
   107    42    44   ar
   108   121   120    1
   109   121   122    2
   110    43    45   ar
   111    64    65    2
   112    50    51    1
   113   120   119    1
   114   124   122    1
   115   131   130    1
   116   131   132    1
   117   122   123    1
   118   119   118    1
   119   114   115    1
   120    44    45   ar
   121   130   129    1
   122   132   133    1
   123   118   115    1
   124   129   126    1
   125    51    52   ar
   126    51    53   ar
   127   115   116    1
   128   125   116   am
   129   125   126    1
   130   116   117    2
   131   126   127    1
   132   127   128    2
