@<TRIPOS>MOLECULE
tmp/1h5sB01.pdb
 128 120 0 0 0
SMALL
GASTEIGER

@<TRIPOS>ATOM
      1  N         35.0890  -23.9990   69.0680 N.3     9  LEU9       -0.1245
      2  CA        34.9690  -24.5940   67.7620 C.3     9  LEU9        0.1561
      3  C         35.1210  -23.4780   66.7430 C.2     9  LEU9        0.2260
      4  O         34.2540  -22.5760   66.6370 O.2     9  LEU9       -0.2867
      5  CB        33.6340  -25.2940   67.6370 C.3     9  LEU9        0.0270
      6  CG        33.2500  -25.8330   66.2800 C.3     9  LEU9        0.0019
      7  CD1       34.2450  -26.9150   65.9570 C.3     9  LEU9        0.0001
      8  CD2       31.8480  -26.3640   66.3930 C.3     9  LEU9        0.0001
      9  N         36.1060  -23.8170   63.3430 N.3    11  GLY11      -0.1210
     10  CA        36.2810  -24.4900   62.0830 C.3    11  GLY11       0.1956
     11  C         35.4490  -23.8240   61.0320 C.2    11  GLY11       0.2612
     12  O         35.2840  -22.6110   61.0800 O.2    11  GLY11      -0.2717
     13  N         34.8790  -24.6150   60.1200 N.am   12  GLY12      -0.1956
     14  CA        34.0170  -24.0490   59.0990 C.3    12  GLY12       0.1869
     15  C         34.6580  -23.8940   57.7260 C.2    12  GLY12       0.2309
     16  O         35.8670  -23.7530   57.5850 O.2    12  GLY12      -0.2863
     17  N         38.6860  -17.3490   59.2490 N.3    26  LYS26      -0.1231
     18  CA        37.7360  -16.3580   59.7360 C.3    26  LYS26       0.1693
     19  C         38.0580  -15.9210   61.1700 C.2    26  LYS26       0.2591
     20  O         37.9950  -14.7070   61.4970 O.2    26  LYS26      -0.2718
     21  CB        36.2940  -16.8610   59.6720 C.3    26  LYS26       0.0285
     22  CG        35.3030  -15.9070   60.3300 C.3    26  LYS26       0.0035
     23  CD        33.8660  -16.5060   60.4820 C.3    26  LYS26       0.0206
     24  CE        32.8670  -15.4020   60.9000 C.3    26  LYS26       0.1093
     25  NZ        31.4120  -15.8060   61.0310 N.3    26  LYS26      -0.1314
     26  N         38.3830  -16.9000   62.0210 N.am   27  GLN27      -0.1979
     27  CA        38.5010  -16.6450   63.4670 C.3    27  GLN27       0.1601
     28  C         39.8530  -15.9960   63.8230 C.2    27  GLN27       0.2287
     29  O         40.0890  -15.6490   64.9830 O.2    27  GLN27      -0.2864
     30  CB        38.2420  -17.9320   64.3310 C.3    27  GLN27       0.0394
     31  CG        36.8530  -18.5990   64.1460 C.3    27  GLN27       0.0908
     32  CD        36.7900  -19.5510   62.9430 C.2    27  GLN27       0.2608
     33  OE1       35.7450  -20.1730   62.6750 O.2    27  GLN27      -0.2717
     34  NE2       37.8780  -19.6230   62.1920 N.am   27  GLN27      -0.0878
     35  N         39.0470  -30.9330   63.1220 N.3    83  GLN83      -0.1245
     36  CA        37.7720  -31.3740   62.5550 C.3    83  GLN83       0.1566
     37  C         37.9790  -31.4890   61.0110 C.2    83  GLN83       0.2260
     38  O         38.0640  -30.4630   60.3300 O.2    83  GLN83      -0.2867
     39  CB        36.6700  -30.3290   62.8490 C.3    83  GLN83       0.0367
     40  CG        35.3300  -30.6310   62.1540 C.3    83  GLN83       0.0905
     41  CD        34.1240  -29.8020   62.6220 C.2    83  GLN83       0.2608
     42  OE1       34.1740  -28.5710   62.6630 O.2    83  GLN83      -0.2717
     43  NE2       33.0070  -30.4830   62.8740 N.am   83  GLN83      -0.0878
     44  N         33.5780  -29.7430   58.0400 N.3    86  PRO86      -0.2102
     45  CA        32.6020  -29.0590   58.8850 C.3    86  PRO86       0.1504
     46  C         31.3050  -29.8500   58.8770 C.2    86  PRO86       0.2576
     47  O         30.2860  -29.4310   58.2930 O.2    86  PRO86      -0.2718
     48  CB        32.4000  -27.7140   58.1930 C.3    86  PRO86       0.0282
     49  CG        32.9090  -27.8450   56.8350 C.3    86  PRO86       0.0208
     50  CD        33.6840  -29.1540   56.7030 C.3    86  PRO86       0.0893
     51  N         31.3830  -31.0460   59.4500 N.am   87  ASP87      -0.1960
     52  CA        30.2410  -31.9510   59.4130 C.3    87  ASP87       0.1840
     53  C         29.1640  -31.6290   60.4470 C.2    87  ASP87       0.2623
     54  O         28.2520  -32.4440   60.6350 O.2    87  ASP87      -0.2715
     55  CB        30.7160  -33.4000   59.6570 C.3    87  ASP87       0.1450
     56  CG        31.4810  -33.9930   58.4760 C.2    87  ASP87       0.3671
     57  OD1       31.3810  -33.4140   57.3680 O.co2  87  ASP87      -0.2456
     58  OD2       32.1630  -35.0640   58.5740 O.co2  87  ASP87      -0.2456
     59  N         29.3470  -30.5750   61.2450 N.am   88  GLY88      -0.1940
     60  CA        28.3750  -30.2720   62.2920 C.3    88  GLY88       0.2014
     61  C         28.9210  -29.8810   63.6660 C.2    88  GLY88       0.2638
     62  O         29.9070  -30.4670   64.2040 O.2    88  GLY88      -0.2714
     63  N         28.2260  -28.9180   64.2740 N.am   89  LEU89      -0.1977
     64  CA        28.5980  -28.4170   65.5860 C.3    89  LEU89       0.1596
     65  C         28.8310  -29.5510   66.5620 C.2    89  LEU89       0.2287
     66  O         29.6900  -29.4550   67.4150 O.2    89  LEU89      -0.2864
     67  CB        27.4930  -27.5330   66.1830 C.3    89  LEU89       0.0297
     68  CG        27.3010  -26.1330   65.5810 C.3    89  LEU89       0.0022
     69  CD1       26.9090  -25.1690   66.6960 C.3    89  LEU89       0.0001
     70  CD2       28.5160  -25.6040   64.8050 C.3    89  LEU89       0.0001
     71  N         31.4750  -21.0340   70.1360 N.3   109  LEU109     -0.1231
     72  CA        31.8700  -20.9770   68.7450 C.3   109  LEU109      0.1693
     73  C         32.9500  -19.9340   68.6180 C.2   109  LEU109      0.2593
     74  O         32.8970  -18.8920   69.2960 O.2   109  LEU109     -0.2718
     75  CB        30.6650  -20.6250   67.8780 C.3   109  LEU109      0.0284
     76  CG        29.4800  -21.5720   68.1220 C.3   109  LEU109      0.0019
     77  CD1       28.4380  -21.4990   67.0120 C.3   109  LEU109      0.0001
     78  CD2       29.9530  -22.9760   68.2360 C.3   109  LEU109      0.0001
     79  N         33.9000  -20.2020   67.7310 N.am  110  GLY110     -0.1942
     80  CA        34.9900  -19.2960   67.4050 C.3   110  GLY110      0.2014
     81  C         34.5910  -17.9250   66.8660 C.2   110  GLY110      0.2638
     82  O         35.3850  -17.0040   66.9110 O.2   110  GLY110     -0.2714
     83  N         33.3820  -17.7350   66.3640 N.am  111  ASP111     -0.1971
     84  CA        33.0590  -16.3780   65.9420 C.3   111  ASP111      0.1709
     85  C         32.0390  -15.6610   66.8190 C.2   111  ASP111      0.2293
     86  O         31.3270  -14.7700   66.3460 O.2   111  ASP111     -0.2864
     87  CB        32.4960  -16.4030   64.5440 C.3   111  ASP111      0.1436
     88  CG        31.2790  -17.2900   64.4420 C.2   111  ASP111      0.3671
     89  OD1       30.9040  -17.9410   65.4480 O.co2 111  ASP111     -0.2456
     90  OD2       30.7760  -17.5570   63.3530 O.co2 111  ASP111     -0.2456
     91  N         15.9270  -25.8270   64.2200 N.3   162  GLU162     -0.1231
     92  CA        17.1060  -25.3370   63.5500 C.3   162  GLU162      0.1699
     93  C         16.7200  -24.6620   62.2150 C.2   162  GLU162      0.2592
     94  O         16.1840  -25.3300   61.3170 O.2   162  GLU162     -0.2718
     95  CB        18.0610  -26.5200   63.3020 C.3   162  GLU162      0.0402
     96  CG        19.3200  -26.2340   62.4790 C.3   162  GLU162      0.1161
     97  CD        20.2820  -25.2540   63.1730 C.2   162  GLU162      0.3649
     98  OE1       20.1170  -25.0030   64.3710 O.co2 162  GLU162     -0.2457
     99  OE2       21.2390  -24.7680   62.5380 O.co2 162  GLU162     -0.2457
    100  N         17.0770  -23.3800   62.0560 N.am  163  LYS163     -0.1980
    101  CA        16.9400  -22.6870   60.7610 C.3   163  LYS163      0.1596
    102  C         15.5940  -22.9330   60.1140 C.2   163  LYS163      0.2287
    103  O         15.5120  -23.2470   58.9410 O.2   163  LYS163     -0.2864
    104  CB        18.0530  -23.0980   59.7590 C.3   163  LYS163      0.0298
    105  CG        19.4480  -22.5720   60.1190 C.3   163  LYS163      0.0038
    106  CD        20.4260  -22.6530   58.9370 C.3   163  LYS163      0.0206
    107  CE        21.8780  -22.7330   59.4440 C.3   163  LYS163      0.1093
    108  NZ        22.9240  -22.3040   58.4450 N.3   163  LYS163     -0.1314
    109  N         20.1870  -32.3470   55.7380 N.3   195  ARG195     -0.1245
    110  CA        21.1940  -31.4990   55.1300 C.3   195  ARG195      0.1563
    111  C         22.6060  -32.0650   55.3530 C.2   195  ARG195      0.2260
    112  O         23.6020  -31.4640   54.9260 O.2   195  ARG195     -0.2867
    113  CB        21.0910  -30.0630   55.6830 C.3   195  ARG195      0.0307
    114  CG        21.6530  -29.8650   57.1300 C.3   195  ARG195      0.0489
    115  CD        22.2590  -28.4730   57.3930 C.3   195  ARG195      0.2205
    116  NE        22.1890  -28.0820   58.7990 N.pl3 195  ARG195     -0.0865
    117  CZ        22.5650  -26.8900   59.2580 C.cat 195  ARG195      0.5346
    118  NH1       23.1010  -25.9950   58.4080 N.pl3 195  ARG195      0.1354
    119  NH2       22.4390  -26.6060   60.5650 N.pl3 195  ARG195      0.1354
    120  N         24.2810  -32.8630   58.4590 N.3   197  GLU197     -0.1245
    121  CA        25.1010  -32.2210   59.4870 C.3   197  GLU197      0.1567
    122  C         24.7360  -32.7390   60.8850 C.2   197  GLU197      0.2260
    123  O         23.5670  -32.8950   61.1920 O.2   197  GLU197     -0.2867
    124  CB        24.9210  -30.7000   59.4250 C.3   197  GLU197      0.0388
    125  CG        25.9160  -29.9350   58.5410 C.3   197  GLU197      0.1160
    126  CD        25.6590  -28.4290   58.5740 C.2   197  GLU197      0.3649
    127  OE1       25.5810  -27.8410   59.6880 O.co2 197  GLU197     -0.2457
    128  OE2       25.4880  -27.8300   57.4860 O.co2 197  GLU197     -0.2457
@<TRIPOS>BOND
     1   112   111    2
     2   110   111    1
     3   110   113    1
     4   110   109    1
     5   113   114    1
     6    50    49    1
     7    50    44    1
     8    49    48    1
     9   114   115    1
    10    57    56   ar
    11   115   116    1
    12   128   126   ar
    13    16    15    2
    14    15    14    1
    15    44    45    1
    16    48    45    1
    17    47    46    2
    18   118   117    1
    19   108   107    1
    20   120   121    1
    21    56    58   ar
    22    56    55    1
    23   125   126    1
    24   125   124    1
    25   126   127   ar
    26   116   117    2
    27    46    45    1
    28    46    51   am
    29   106   107    1
    30   106   105    1
    31   103   102    2
    32    14    13    1
    33    17    18    1
    34   117   119    1
    35    52    51    1
    36    52    55    1
    37    52    53    1
    38   124   121    1
    39   121   122    1
    40    21    18    1
    41    21    22    1
    42    18    19    1
    43   104   105    1
    44   104   101    1
    45   102   101    1
    46    13    11   am
    47    38    37    2
    48    22    23    1
    49    53    54    2
    50    53    59   am
    51    23    24    1
    52   101   100    1
    53   122   123    2
    54    24    25    1
    55    37    36    1
    56    11    12    2
    57    11    10    1
    58    19    20    2
    59    19    26   am
    60    59    60    1
    61    94    93    2
    62    26    27    1
    63   100    93   am
    64    10     9    1
    65    40    41    1
    66    40    39    1
    67    34    32   am
    68    93    92    1
    69    60    61    1
    70    96    97    1
    71    96    95    1
    72    99    97   ar
    73    36    39    1
    74    36    35    1
    75    41    42    2
    76    41    43   am
    77    33    32    2
    78    32    31    1
    79    97    98   ar
    80    95    92    1
    81    90    88   ar
    82    27    28    1
    83    27    30    1
    84    92    91    1
    85    61    62    2
    86    61    63   am
    87    28    29    2
    88    31    30    1
    89    63    64    1
    90    88    87    1
    91    88    89   ar
    92    87    84    1
    93    70    68    1
    94    68    67    1
    95    68    69    1
    96    64    67    1
    97    64    65    1
    98    84    83    1
    99    84    85    1
   100     7     6    1
   101     6     8    1
   102     6     5    1
   103    86    85    2
   104    83    81   am
   105    65    66    2
   106     4     3    2
   107     3     2    1
   108    81    82    2
   109    81    80    1
   110    77    76    1
   111    80    79    1
   112     5     2    1
   113    79    73   am
   114     2     1    1
   115    75    76    1
   116    75    72    1
   117    76    78    1
   118    73    72    1
   119    73    74    2
   120    72    71    1
