@<TRIPOS>MOLECULE
tmp/1h5tA00.pdb
 124 123 0 0 0
SMALL
GASTEIGER

@<TRIPOS>ATOM
      1  N         45.3560   -1.6370   36.8930 N.3    45  LEU45      -0.1245
      2  CA        44.6930   -0.5120   36.2660 C.3    45  LEU45       0.1561
      3  C         45.6600    0.3460   35.4530 C.2    45  LEU45       0.2260
      4  O         45.2290    1.0310   34.5220 O.2    45  LEU45      -0.2867
      5  CB        43.9620    0.3860   37.2880 C.3    45  LEU45       0.0270
      6  CG        42.6600   -0.3260   37.6720 C.3    45  LEU45       0.0019
      7  CD1       42.0270    0.2410   38.9420 C.3    45  LEU45       0.0001
      8  CD2       41.6660   -0.3450   36.5220 C.3    45  LEU45       0.0001
      9  N         43.9990    3.3970   46.8110 N.3   113  PHE113     -0.1227
     10  CA        43.7400    4.6180   46.0230 C.3   113  PHE113      0.1736
     11  C         42.3840    4.4750   45.3470 C.2   113  PHE113      0.2595
     12  O         41.9930    3.3600   44.9010 O.2   113  PHE113     -0.2718
     13  CB        44.7730    4.7630   44.8940 C.3   113  PHE113      0.0547
     14  CG        46.1670    4.9910   45.3710 C.ar  113  PHE113     -0.0202
     15  CD1       47.0420    3.9060   45.5530 C.ar  113  PHE113     -0.0042
     16  CD2       46.6540    6.2800   45.5550 C.ar  113  PHE113     -0.0042
     17  CE1       48.3620    4.1000   46.0090 C.ar  113  PHE113     -0.0003
     18  CE2       48.0090    6.5120   45.9160 C.ar  113  PHE113     -0.0003
     19  CZ        48.8480    5.4230   46.1860 C.ar  113  PHE113     -0.0000
     20  N         41.6060    5.5620   45.3220 N.am  114  TYR114     -0.1962
     21  CA        40.3190    5.4710   44.6600 C.3   114  TYR114      0.1771
     22  C         39.9730    6.8550   44.1000 C.2   114  TYR114      0.2620
     23  O         40.2030    7.8550   44.7510 O.2   114  TYR114     -0.2715
     24  CB        39.2490    5.0700   45.6700 C.3   114  TYR114      0.0574
     25  CG        37.8230    5.3480   45.1900 C.ar  114  TYR114     -0.0198
     26  CD1       37.1500    4.4840   44.3410 C.ar  114  TYR114     -0.0009
     27  CD2       37.1470    6.4480   45.6580 C.ar  114  TYR114     -0.0009
     28  CE1       35.8200    4.7690   43.9360 C.ar  114  TYR114      0.0417
     29  CE2       35.8850    6.7450   45.2580 C.ar  114  TYR114      0.0417
     30  CZ        35.2020    5.8870   44.4280 C.ar  114  TYR114      0.1957
     31  OH        33.9130    6.2390   44.1020 O.3   114  TYR114     -0.2866
     32  N         39.3950    6.9050   42.9110 N.am  115  GLY115     -0.1940
     33  CA        38.9050    8.1960   42.4450 C.3   115  GLY115      0.2014
     34  C         38.6740    8.1930   40.9540 C.2   115  GLY115      0.2639
     35  O         39.3760    7.5070   40.1720 O.2   115  GLY115     -0.2714
     36  N         37.8890    9.1730   40.5410 N.am  116  HIS116     -0.1959
     37  CA        37.5630    9.3130   39.1490 C.3   116  HIS116      0.1787
     38  C         38.8260    9.6560   38.3680 C.2   116  HIS116      0.2620
     39  O         39.5110   10.6090   38.6790 O.2   116  HIS116     -0.2715
     40  CB        36.5360   10.4570   39.0000 C.3   116  HIS116      0.0785
     41  CG        36.2670   10.8140   37.5600 C.ar  116  HIS116      0.0821
     42  ND1       35.7760    9.9160   36.6360 N.ar  116  HIS116     -0.2267
     43  CD2       36.3820   11.9950   36.9040 C.ar  116  HIS116      0.1154
     44  CE1       35.6060   10.5260   35.4760 C.ar  116  HIS116      0.1986
     45  NE2       36.0180   11.7700   35.5990 N.ar  116  HIS116     -0.2212
     46  N         38.9920    8.9770   37.2540 N.am  117  ASP117     -0.1957
     47  CA        40.1500    9.1250   36.3880 C.3   117  ASP117      0.1840
     48  C         41.4980    8.6810   36.9620 C.2   117  ASP117      0.2622
     49  O         42.5420    8.9870   36.3920 O.2   117  ASP117     -0.2715
     50  CB        40.1860   10.4500   35.6460 C.3   117  ASP117      0.1450
     51  CG        39.3350   10.4250   34.3900 C.2   117  ASP117      0.3671
     52  OD1       39.2010    9.3310   33.7850 O.co2 117  ASP117     -0.2456
     53  OD2       38.7400   11.4250   33.9580 O.co2 117  ASP117     -0.2456
     54  N         41.4820    7.8810   38.0210 N.am  118  LEU118     -0.1964
     55  CA        42.7530    7.3850   38.5320 C.3   118  LEU118      0.1713
     56  C         43.5070    6.6100   37.4240 C.2   118  LEU118      0.2458
     57  O         44.7160    6.7780   37.2570 O.2   118  LEU118     -0.2730
     58  CB        42.4990    6.4340   39.6880 C.3   118  LEU118      0.0310
     59  CG        43.7790    5.8410   40.2790 C.3   118  LEU118      0.0022
     60  CD1       44.5500    6.9840   40.9600 C.3   118  LEU118      0.0001
     61  CD2       43.3720    4.7790   41.3210 C.3   118  LEU118      0.0001
     62  N         42.8040    5.7950   36.6470 N.am  119  PRO119     -0.2727
     63  CA        43.4980    5.0090   35.6140 C.3   119  PRO119      0.1402
     64  C         44.2000    5.9080   34.6220 C.2   119  PRO119      0.2269
     65  O         45.3490    5.5970   34.2580 O.2   119  PRO119     -0.2865
     66  CB        42.3830    4.1910   34.9230 C.3   119  PRO119      0.0296
     67  CG        41.2300    4.2120   35.8850 C.3   119  PRO119      0.0237
     68  CD        41.4600    5.2600   36.9290 C.3   119  PRO119      0.0939
     69  N         32.1380   -3.2060   42.3850 N.3   249  LYS249     -0.1231
     70  CA        33.2000   -3.4110   43.3480 C.3   249  LYS249      0.1693
     71  C         34.3820   -2.4730   43.0700 C.2   249  LYS249      0.2592
     72  O         34.6190   -2.0610   41.9260 O.2   249  LYS249     -0.2718
     73  CB        33.6800   -4.8390   43.1980 C.3   249  LYS249      0.0285
     74  CG        32.5960   -5.8170   43.5600 C.3   249  LYS249      0.0035
     75  CD        33.2300   -7.0680   44.2190 C.3   249  LYS249      0.0206
     76  CE        32.1820   -7.9590   44.9360 C.3   249  LYS249      0.1093
     77  NZ        31.7610   -7.4860   46.3140 N.3   249  LYS249     -0.1314
     78  N         35.0940   -2.1090   44.1140 N.am  250  VAL250     -0.1966
     79  CA        36.3330   -1.3380   43.9810 C.3   250  VAL250      0.1727
     80  C         37.5070   -2.3260   44.0400 C.2   250  VAL250      0.2617
     81  O         37.6010   -3.1090   44.9920 O.2   250  VAL250     -0.2715
     82  CB        36.4330   -0.3390   45.1830 C.3   250  VAL250      0.0290
     83  CG1       37.7250    0.4260   45.1330 C.3   250  VAL250      0.0023
     84  CG2       35.2150    0.6360   45.1680 C.3   250  VAL250      0.0023
     85  N         38.4550   -2.2420   43.0780 N.am  251  SER251     -0.1936
     86  CA        39.6610   -3.0600   43.1260 C.3   251  SER251      0.2055
     87  C         39.4100   -4.5450   43.2570 C.2   251  SER251      0.2643
     88  O         40.0480   -5.2510   44.0840 O.2   251  SER251     -0.2714
     89  CB        40.6180   -2.6470   44.2580 C.3   251  SER251      0.2130
     90  OG        40.8900   -1.2880   44.1400 O.3   251  SER251     -0.2179
     91  N         38.4780   -5.0200   42.4370 N.am  252  CYS252     -0.1967
     92  CA        38.3010   -6.4410   42.2580 C.3   252  CYS252      0.1712
     93  C         39.1680   -6.8800   41.0710 C.2   252  CYS252      0.2296
     94  O         38.8940   -6.5000   39.9160 O.2   252  CYS252     -0.2864
     95  CB        36.8360   -6.7050   42.0010 C.3   252  CYS252      0.0983
     96  SG        36.4980   -8.3760   41.4270 S.3   252  CYS252     -0.0798
     97  N         37.6040   -8.6520   38.0890 N.3   255  GLU255     -0.1231
     98  CA        36.8400   -7.7050   37.2900 C.3   255  GLU255      0.1699
     99  C         37.7620   -6.8640   36.4180 C.2   255  GLU255      0.2592
    100  O         37.4370   -6.5750   35.2640 O.2   255  GLU255     -0.2718
    101  CB        36.0080   -6.7680   38.1740 C.3   255  GLU255      0.0402
    102  CG        35.4680   -5.5760   37.3530 C.3   255  GLU255      0.1161
    103  CD        34.3590   -4.8010   38.0470 C.2   255  GLU255      0.3649
    104  OE1       34.4290   -4.6750   39.2810 O.co2 255  GLU255     -0.2457
    105  OE2       33.4930   -4.2140   37.3540 O.co2 255  GLU255     -0.2457
    106  N         38.7940   -6.2810   37.0240 N.am  256  ILE256     -0.1980
    107  CA        39.7470   -5.4950   36.2440 C.3   256  ILE256      0.1595
    108  C         40.3660   -6.3070   35.0750 C.2   256  ILE256      0.2287
    109  O         40.4190   -5.8060   33.9240 O.2   256  ILE256     -0.2864
    110  CB        40.7830   -4.8710   37.1830 C.3   256  ILE256      0.0276
    111  CG1       40.0690   -3.7560   37.9710 C.3   256  ILE256      0.0022
    112  CG2       41.8610   -4.1660   36.3760 C.3   256  ILE256      0.0022
    113  CD1       40.8350   -3.2670   39.1720 C.3   256  ILE256      0.0001
    114  N         37.8290   -6.5520   32.2990 N.3   259  ARG259     -0.1245
    115  CA        37.5000   -5.3300   31.6040 C.3   259  ARG259      0.1563
    116  C         38.6390   -4.7830   30.7750 C.2   259  ARG259      0.2260
    117  O         38.3650   -4.2000   29.7610 O.2   259  ARG259     -0.2867
    118  CB        36.8690   -4.2690   32.5120 C.3   259  ARG259      0.0307
    119  CG        35.5480   -4.7830   33.0740 C.3   259  ARG259      0.0489
    120  CD        34.5170   -3.7700   33.6020 C.3   259  ARG259      0.2205
    121  NE        33.3310   -4.5620   33.9210 N.pl3 259  ARG259     -0.0865
    122  CZ        32.3320   -4.2320   34.7190 C.cat 259  ARG259      0.5346
    123  NH1       32.2310   -3.0010   35.2040 N.pl3 259  ARG259      0.1354
    124  NH2       31.3820   -5.1360   34.9600 N.pl3 259  ARG259      0.1354
@<TRIPOS>BOND
     1   117   116    2
     2   116   115    1
     3   115   114    1
     4   115   118    1
     5   118   119    1
     6   119   120    1
     7   120   121    1
     8    52    51   ar
     9   121   122    2
    10   109   108    2
    11    53    51   ar
    12    65    64    2
    13    51    50    1
    14     4     3    2
    15    64    63    1
    16   122   124    1
    17   122   123    1
    18    66    63    1
    19    66    67    1
    20   108   107    1
    21   100    99    2
    22     3     2    1
    23    44    45   ar
    24    44    42   ar
    25    45    43   ar
    26    63    62    1
    27    50    47    1
    28    67    68    1
    29   107   106    1
    30   107   110    1
    31     2     1    1
    32     2     5    1
    33   112   110    1
    34    47    48    1
    35    47    46    1
    36    49    48    2
    37    99   106   am
    38    99    98    1
    39     8     6    1
    40    42    41   ar
    41    62    68    1
    42    62    56   am
    43    43    41   ar
    44    48    54   am
    45   110   111    1
    46    46    38   am
    47    57    56    2
    48     5     6    1
    49    98    97    1
    50    98   101    1
    51   102   103    1
    52   102   101    1
    53   105   103   ar
    54    56    55    1
    55    41    40    1
    56     6     7    1
    57   111   113    1
    58    54    55    1
    59   103   104   ar
    60    38    39    2
    61    38    37    1
    62    55    58    1
    63    40    37    1
    64    37    36    1
    65    58    59    1
    66    94    93    2
    67    35    34    2
    68    59    60    1
    69    59    61    1
    70    36    34   am
    71    34    33    1
    72    93    92    1
    73    96    95    1
    74    72    71    2
    75    95    92    1
    76    92    91    1
    77    69    70    1
    78    91    87   am
    79    33    32    1
    80    32    22   am
    81    71    70    1
    82    71    78   am
    83    85    86    1
    84    85    80   am
    85    86    87    1
    86    86    89    1
    87    73    70    1
    88    73    74    1
    89    87    88    2
    90    74    75    1
    91    28    26   ar
    92    28    30   ar
    93    79    80    1
    94    79    78    1
    95    79    82    1
    96    80    81    2
    97    22    21    1
    98    22    23    2
    99    31    30    1
   100    90    89    1
   101    75    76    1
   102    26    25   ar
   103    30    29   ar
   104    21    20    1
   105    21    24    1
   106    13    14    1
   107    13    10    1
   108    12    11    2
   109    76    77    1
   110    83    82    1
   111    84    82    1
   112    25    27   ar
   113    25    24    1
   114    29    27   ar
   115    20    11   am
   116    11    10    1
   117    14    15   ar
   118    14    16   ar
   119    15    17   ar
   120    16    18   ar
   121    18    19   ar
   122    17    19   ar
   123    10     9    1
